*SPICE NETLIST
* OPEN SOURCE CONVERSION PRELUDE (SPICE)

.include ../lib/openram_dff/openram_dff.spice
.include ../lib/sram_sp_cell/sky130_fd_bd_sram__sram_sp_cell.lvs.spice
.include ../lib/sram_sp_cell_replica/sky130_fd_bd_sram__openram_sp_cell_opt1_replica.lvs.spice
.include ../lib/sramgen_sp_sense_amp/sramgen_sp_sense_amp.lvs.spice
.include ../lib/sramgen_control/sramgen_control_replica_v1.spice

.SUBCKT sky130_fd_pr__special_nfet_pass d g s b PARAMS: w=1.0 l=1.0 mult=1
M0 d g s b npass l='l' w='w' mult='mult'
.ENDS

.SUBCKT sky130_fd_pr__special_nfet_latch d g s b PARAMS: w=1.0 l=1.0 mult=1
M0 d g s b npd l='l' w='w' mult='mult'
.ENDS

.SUBCKT sky130_fd_pr__nfet_01v8 d g s b PARAMS: w=1.0 l=1.0 mult=1
M0 d g s b nshort l='l' w='w' mult='mult'
.ENDS

.SUBCKT sky130_fd_pr__pfet_01v8 d g s b PARAMS: w=1.0 l=1.0 mult=1
M0 d g s b pshort l='l' w='w' mult='mult'
.ENDS

.SUBCKT sky130_fd_pr__special_pfet_pass d g s b PARAMS: w=1.0 l=1.0 mult=1
M0 d g s b ppu l='l' w='w' mult='mult'
.ENDS

.SUBCKT sky130_fd_pr__pfet_01v8_hvt d g s b PARAMS: w=1.0 l=1.0 mult=1
M0 d g s b phighvt l='l' w='w' mult='mult'
.ENDS

.SUBCKT sky130_fd_pr__nfet_01v8_lvt d g s b PARAMS: w=1.0 l=1.0 mult=1
M0 d g s b nlowvt l='l' w='w' mult='mult'
.ENDS
* circuit.Package sramgen_sramgen_sram_64x32m4w32_replica_v1
* Written by SpiceNetlister
* 

.SUBCKT hierarchical_decoder_nand_2 
+ gnd vdd a b y 

xn1 
+ x a gnd gnd 
+ sky130_fd_pr__nfet_01v8 
+ w='3.2' l='0.15' 

xn2 
+ y b x gnd 
+ sky130_fd_pr__nfet_01v8 
+ w='3.2' l='0.15' 

xp1 
+ y a vdd vdd 
+ sky130_fd_pr__pfet_01v8 
+ w='2.4' l='0.15' 

xp2 
+ y b vdd vdd 
+ sky130_fd_pr__pfet_01v8 
+ w='2.4' l='0.15' 

.ENDS

.SUBCKT hierarchical_decoder_inv_3 
+ gnd vdd din din_b 

xn 
+ din_b din gnd gnd 
+ sky130_fd_pr__nfet_01v8 
+ w='1.6' l='0.15' 

xp 
+ din_b din vdd vdd 
+ sky130_fd_pr__pfet_01v8 
+ w='2.4' l='0.15' 

.ENDS

.SUBCKT hierarchical_decoder 
+ vdd gnd addr[3] addr[2] addr[1] addr[0] addr_b[3] addr_b[2] addr_b[1] addr_b[0] decode[15] decode[14] decode[13] decode[12] decode[11] decode[10] decode[9] decode[8] decode[7] decode[6] decode[5] decode[4] decode[3] decode[2] decode[1] decode[0] decode_b[15] decode_b[14] decode_b[13] decode_b[12] decode_b[11] decode_b[10] decode_b[9] decode_b[8] decode_b[7] decode_b[6] decode_b[5] decode_b[4] decode_b[3] decode_b[2] decode_b[1] decode_b[0] 

xnand_5 
+ gnd vdd addr_b[3] addr_b[2] net_4 
+ hierarchical_decoder_nand_2 
* No parameters

xinv_6 
+ gnd vdd net_4 predecode_1[0] 
+ hierarchical_decoder_inv_3 
* No parameters

xnand_8 
+ gnd vdd addr_b[3] addr[2] net_7 
+ hierarchical_decoder_nand_2 
* No parameters

xinv_9 
+ gnd vdd net_7 predecode_1[1] 
+ hierarchical_decoder_inv_3 
* No parameters

xnand_11 
+ gnd vdd addr[3] addr_b[2] net_10 
+ hierarchical_decoder_nand_2 
* No parameters

xinv_12 
+ gnd vdd net_10 predecode_1[2] 
+ hierarchical_decoder_inv_3 
* No parameters

xnand_14 
+ gnd vdd addr[3] addr[2] net_13 
+ hierarchical_decoder_nand_2 
* No parameters

xinv_15 
+ gnd vdd net_13 predecode_1[3] 
+ hierarchical_decoder_inv_3 
* No parameters

xnand_18 
+ gnd vdd addr_b[1] addr_b[0] net_17 
+ hierarchical_decoder_nand_2 
* No parameters

xinv_19 
+ gnd vdd net_17 predecode_16[0] 
+ hierarchical_decoder_inv_3 
* No parameters

xnand_21 
+ gnd vdd addr_b[1] addr[0] net_20 
+ hierarchical_decoder_nand_2 
* No parameters

xinv_22 
+ gnd vdd net_20 predecode_16[1] 
+ hierarchical_decoder_inv_3 
* No parameters

xnand_24 
+ gnd vdd addr[1] addr_b[0] net_23 
+ hierarchical_decoder_nand_2 
* No parameters

xinv_25 
+ gnd vdd net_23 predecode_16[2] 
+ hierarchical_decoder_inv_3 
* No parameters

xnand_27 
+ gnd vdd addr[1] addr[0] net_26 
+ hierarchical_decoder_nand_2 
* No parameters

xinv_28 
+ gnd vdd net_26 predecode_16[3] 
+ hierarchical_decoder_inv_3 
* No parameters

xnand_29 
+ gnd vdd predecode_1[0] predecode_16[0] decode_b[0] 
+ hierarchical_decoder_nand_2 
* No parameters

xinv_30 
+ gnd vdd decode_b[0] decode[0] 
+ hierarchical_decoder_inv_3 
* No parameters

xnand_31 
+ gnd vdd predecode_1[0] predecode_16[1] decode_b[1] 
+ hierarchical_decoder_nand_2 
* No parameters

xinv_32 
+ gnd vdd decode_b[1] decode[1] 
+ hierarchical_decoder_inv_3 
* No parameters

xnand_33 
+ gnd vdd predecode_1[0] predecode_16[2] decode_b[2] 
+ hierarchical_decoder_nand_2 
* No parameters

xinv_34 
+ gnd vdd decode_b[2] decode[2] 
+ hierarchical_decoder_inv_3 
* No parameters

xnand_35 
+ gnd vdd predecode_1[0] predecode_16[3] decode_b[3] 
+ hierarchical_decoder_nand_2 
* No parameters

xinv_36 
+ gnd vdd decode_b[3] decode[3] 
+ hierarchical_decoder_inv_3 
* No parameters

xnand_37 
+ gnd vdd predecode_1[1] predecode_16[0] decode_b[4] 
+ hierarchical_decoder_nand_2 
* No parameters

xinv_38 
+ gnd vdd decode_b[4] decode[4] 
+ hierarchical_decoder_inv_3 
* No parameters

xnand_39 
+ gnd vdd predecode_1[1] predecode_16[1] decode_b[5] 
+ hierarchical_decoder_nand_2 
* No parameters

xinv_40 
+ gnd vdd decode_b[5] decode[5] 
+ hierarchical_decoder_inv_3 
* No parameters

xnand_41 
+ gnd vdd predecode_1[1] predecode_16[2] decode_b[6] 
+ hierarchical_decoder_nand_2 
* No parameters

xinv_42 
+ gnd vdd decode_b[6] decode[6] 
+ hierarchical_decoder_inv_3 
* No parameters

xnand_43 
+ gnd vdd predecode_1[1] predecode_16[3] decode_b[7] 
+ hierarchical_decoder_nand_2 
* No parameters

xinv_44 
+ gnd vdd decode_b[7] decode[7] 
+ hierarchical_decoder_inv_3 
* No parameters

xnand_45 
+ gnd vdd predecode_1[2] predecode_16[0] decode_b[8] 
+ hierarchical_decoder_nand_2 
* No parameters

xinv_46 
+ gnd vdd decode_b[8] decode[8] 
+ hierarchical_decoder_inv_3 
* No parameters

xnand_47 
+ gnd vdd predecode_1[2] predecode_16[1] decode_b[9] 
+ hierarchical_decoder_nand_2 
* No parameters

xinv_48 
+ gnd vdd decode_b[9] decode[9] 
+ hierarchical_decoder_inv_3 
* No parameters

xnand_49 
+ gnd vdd predecode_1[2] predecode_16[2] decode_b[10] 
+ hierarchical_decoder_nand_2 
* No parameters

xinv_50 
+ gnd vdd decode_b[10] decode[10] 
+ hierarchical_decoder_inv_3 
* No parameters

xnand_51 
+ gnd vdd predecode_1[2] predecode_16[3] decode_b[11] 
+ hierarchical_decoder_nand_2 
* No parameters

xinv_52 
+ gnd vdd decode_b[11] decode[11] 
+ hierarchical_decoder_inv_3 
* No parameters

xnand_53 
+ gnd vdd predecode_1[3] predecode_16[0] decode_b[12] 
+ hierarchical_decoder_nand_2 
* No parameters

xinv_54 
+ gnd vdd decode_b[12] decode[12] 
+ hierarchical_decoder_inv_3 
* No parameters

xnand_55 
+ gnd vdd predecode_1[3] predecode_16[1] decode_b[13] 
+ hierarchical_decoder_nand_2 
* No parameters

xinv_56 
+ gnd vdd decode_b[13] decode[13] 
+ hierarchical_decoder_inv_3 
* No parameters

xnand_57 
+ gnd vdd predecode_1[3] predecode_16[2] decode_b[14] 
+ hierarchical_decoder_nand_2 
* No parameters

xinv_58 
+ gnd vdd decode_b[14] decode[14] 
+ hierarchical_decoder_inv_3 
* No parameters

xnand_59 
+ gnd vdd predecode_1[3] predecode_16[3] decode_b[15] 
+ hierarchical_decoder_nand_2 
* No parameters

xinv_60 
+ gnd vdd decode_b[15] decode[15] 
+ hierarchical_decoder_inv_3 
* No parameters

.ENDS

.SUBCKT column_decoder_nand_1 
+ gnd vdd a b y 

xn1 
+ x a gnd gnd 
+ sky130_fd_pr__nfet_01v8 
+ w='3.2' l='0.15' 

xn2 
+ y b x gnd 
+ sky130_fd_pr__nfet_01v8 
+ w='3.2' l='0.15' 

xp1 
+ y a vdd vdd 
+ sky130_fd_pr__pfet_01v8 
+ w='2.4' l='0.15' 

xp2 
+ y b vdd vdd 
+ sky130_fd_pr__pfet_01v8 
+ w='2.4' l='0.15' 

.ENDS

.SUBCKT column_decoder_inv_2 
+ gnd vdd din din_b 

xn 
+ din_b din gnd gnd 
+ sky130_fd_pr__nfet_01v8 
+ w='1.6' l='0.15' 

xp 
+ din_b din vdd vdd 
+ sky130_fd_pr__pfet_01v8 
+ w='2.4' l='0.15' 

.ENDS

.SUBCKT column_decoder 
+ vdd gnd addr[1] addr[0] addr_b[1] addr_b[0] decode[3] decode[2] decode[1] decode[0] decode_b[3] decode_b[2] decode_b[1] decode_b[0] 

xnand_3 
+ gnd vdd addr_b[1] addr_b[0] decode_b[0] 
+ column_decoder_nand_1 
* No parameters

xinv_4 
+ gnd vdd decode_b[0] decode[0] 
+ column_decoder_inv_2 
* No parameters

xnand_5 
+ gnd vdd addr_b[1] addr[0] decode_b[1] 
+ column_decoder_nand_1 
* No parameters

xinv_6 
+ gnd vdd decode_b[1] decode[1] 
+ column_decoder_inv_2 
* No parameters

xnand_7 
+ gnd vdd addr[1] addr_b[0] decode_b[2] 
+ column_decoder_nand_1 
* No parameters

xinv_8 
+ gnd vdd decode_b[2] decode[2] 
+ column_decoder_inv_2 
* No parameters

xnand_9 
+ gnd vdd addr[1] addr[0] decode_b[3] 
+ column_decoder_nand_1 
* No parameters

xinv_10 
+ gnd vdd decode_b[3] decode[3] 
+ column_decoder_inv_2 
* No parameters

.ENDS

.SUBCKT wordline_driver_and2_nand 
+ gnd vdd a b y 

xn1 
+ x a gnd gnd 
+ sky130_fd_pr__nfet_01v8 
+ w='3.2' l='0.15' 

xn2 
+ y b x gnd 
+ sky130_fd_pr__nfet_01v8 
+ w='3.2' l='0.15' 

xp1 
+ y a vdd vdd 
+ sky130_fd_pr__pfet_01v8 
+ w='2.4' l='0.15' 

xp2 
+ y b vdd vdd 
+ sky130_fd_pr__pfet_01v8 
+ w='2.4' l='0.15' 

.ENDS

.SUBCKT wordline_driver_and2_inv 
+ gnd vdd din din_b 

xn 
+ din_b din gnd gnd 
+ sky130_fd_pr__nfet_01v8 
+ w='1.6' l='0.15' 

xp 
+ din_b din vdd vdd 
+ sky130_fd_pr__pfet_01v8 
+ w='2.4' l='0.15' 

.ENDS

.SUBCKT wordline_driver_and2 
+ a b y vdd vss 

xnand 
+ vss vdd a b tmp 
+ wordline_driver_and2_nand 
* No parameters

xinv 
+ vss vdd tmp y 
+ wordline_driver_and2_inv 
* No parameters

.ENDS

.SUBCKT wordline_driver 
+ vdd vss din wl_en wl 

xand2 
+ din wl_en wl vdd vss 
+ wordline_driver_and2 
* No parameters

.ENDS

.SUBCKT wordline_driver_array 
+ vdd vss din[15] din[14] din[13] din[12] din[11] din[10] din[9] din[8] din[7] din[6] din[5] din[4] din[3] din[2] din[1] din[0] wl_en wl[15] wl[14] wl[13] wl[12] wl[11] wl[10] wl[9] wl[8] wl[7] wl[6] wl[5] wl[4] wl[3] wl[2] wl[1] wl[0] 

xwl_driver_0 
+ vdd vss din[0] wl_en wl[0] 
+ wordline_driver 
* No parameters

xwl_driver_1 
+ vdd vss din[1] wl_en wl[1] 
+ wordline_driver 
* No parameters

xwl_driver_2 
+ vdd vss din[2] wl_en wl[2] 
+ wordline_driver 
* No parameters

xwl_driver_3 
+ vdd vss din[3] wl_en wl[3] 
+ wordline_driver 
* No parameters

xwl_driver_4 
+ vdd vss din[4] wl_en wl[4] 
+ wordline_driver 
* No parameters

xwl_driver_5 
+ vdd vss din[5] wl_en wl[5] 
+ wordline_driver 
* No parameters

xwl_driver_6 
+ vdd vss din[6] wl_en wl[6] 
+ wordline_driver 
* No parameters

xwl_driver_7 
+ vdd vss din[7] wl_en wl[7] 
+ wordline_driver 
* No parameters

xwl_driver_8 
+ vdd vss din[8] wl_en wl[8] 
+ wordline_driver 
* No parameters

xwl_driver_9 
+ vdd vss din[9] wl_en wl[9] 
+ wordline_driver 
* No parameters

xwl_driver_10 
+ vdd vss din[10] wl_en wl[10] 
+ wordline_driver 
* No parameters

xwl_driver_11 
+ vdd vss din[11] wl_en wl[11] 
+ wordline_driver 
* No parameters

xwl_driver_12 
+ vdd vss din[12] wl_en wl[12] 
+ wordline_driver 
* No parameters

xwl_driver_13 
+ vdd vss din[13] wl_en wl[13] 
+ wordline_driver 
* No parameters

xwl_driver_14 
+ vdd vss din[14] wl_en wl[14] 
+ wordline_driver 
* No parameters

xwl_driver_15 
+ vdd vss din[15] wl_en wl[15] 
+ wordline_driver 
* No parameters

.ENDS

.SUBCKT bitcell_array 
+ vdd vss bl[127] bl[126] bl[125] bl[124] bl[123] bl[122] bl[121] bl[120] bl[119] bl[118] bl[117] bl[116] bl[115] bl[114] bl[113] bl[112] bl[111] bl[110] bl[109] bl[108] bl[107] bl[106] bl[105] bl[104] bl[103] bl[102] bl[101] bl[100] bl[99] bl[98] bl[97] bl[96] bl[95] bl[94] bl[93] bl[92] bl[91] bl[90] bl[89] bl[88] bl[87] bl[86] bl[85] bl[84] bl[83] bl[82] bl[81] bl[80] bl[79] bl[78] bl[77] bl[76] bl[75] bl[74] bl[73] bl[72] bl[71] bl[70] bl[69] bl[68] bl[67] bl[66] bl[65] bl[64] bl[63] bl[62] bl[61] bl[60] bl[59] bl[58] bl[57] bl[56] bl[55] bl[54] bl[53] bl[52] bl[51] bl[50] bl[49] bl[48] bl[47] bl[46] bl[45] bl[44] bl[43] bl[42] bl[41] bl[40] bl[39] bl[38] bl[37] bl[36] bl[35] bl[34] bl[33] bl[32] bl[31] bl[30] bl[29] bl[28] bl[27] bl[26] bl[25] bl[24] bl[23] bl[22] bl[21] bl[20] bl[19] bl[18] bl[17] bl[16] bl[15] bl[14] bl[13] bl[12] bl[11] bl[10] bl[9] bl[8] bl[7] bl[6] bl[5] bl[4] bl[3] bl[2] bl[1] bl[0] br[127] br[126] br[125] br[124] br[123] br[122] br[121] br[120] br[119] br[118] br[117] br[116] br[115] br[114] br[113] br[112] br[111] br[110] br[109] br[108] br[107] br[106] br[105] br[104] br[103] br[102] br[101] br[100] br[99] br[98] br[97] br[96] br[95] br[94] br[93] br[92] br[91] br[90] br[89] br[88] br[87] br[86] br[85] br[84] br[83] br[82] br[81] br[80] br[79] br[78] br[77] br[76] br[75] br[74] br[73] br[72] br[71] br[70] br[69] br[68] br[67] br[66] br[65] br[64] br[63] br[62] br[61] br[60] br[59] br[58] br[57] br[56] br[55] br[54] br[53] br[52] br[51] br[50] br[49] br[48] br[47] br[46] br[45] br[44] br[43] br[42] br[41] br[40] br[39] br[38] br[37] br[36] br[35] br[34] br[33] br[32] br[31] br[30] br[29] br[28] br[27] br[26] br[25] br[24] br[23] br[22] br[21] br[20] br[19] br[18] br[17] br[16] br[15] br[14] br[13] br[12] br[11] br[10] br[9] br[8] br[7] br[6] br[5] br[4] br[3] br[2] br[1] br[0] wl[15] wl[14] wl[13] wl[12] wl[11] wl[10] wl[9] wl[8] wl[7] wl[6] wl[5] wl[4] wl[3] wl[2] wl[1] wl[0] vnb vpb rbl rbr 

xbitcell_0_0 
+ vdd vdd vdd vss vss vnb vpb 
+ sram_sp_cell 
* No parameters

xbitcell_0_1 
+ rbl rbr vdd vss vss vnb vpb 
+ sram_sp_cell 
* No parameters

xbitcell_0_2 
+ bl[0] br[0] vdd vss vss vnb vpb 
+ sram_sp_cell 
* No parameters

xbitcell_0_3 
+ bl[1] br[1] vdd vss vss vnb vpb 
+ sram_sp_cell 
* No parameters

xbitcell_0_4 
+ bl[2] br[2] vdd vss vss vnb vpb 
+ sram_sp_cell 
* No parameters

xbitcell_0_5 
+ bl[3] br[3] vdd vss vss vnb vpb 
+ sram_sp_cell 
* No parameters

xbitcell_0_6 
+ bl[4] br[4] vdd vss vss vnb vpb 
+ sram_sp_cell 
* No parameters

xbitcell_0_7 
+ bl[5] br[5] vdd vss vss vnb vpb 
+ sram_sp_cell 
* No parameters

xbitcell_0_8 
+ bl[6] br[6] vdd vss vss vnb vpb 
+ sram_sp_cell 
* No parameters

xbitcell_0_9 
+ bl[7] br[7] vdd vss vss vnb vpb 
+ sram_sp_cell 
* No parameters

xbitcell_0_10 
+ bl[8] br[8] vdd vss vss vnb vpb 
+ sram_sp_cell 
* No parameters

xbitcell_0_11 
+ bl[9] br[9] vdd vss vss vnb vpb 
+ sram_sp_cell 
* No parameters

xbitcell_0_12 
+ bl[10] br[10] vdd vss vss vnb vpb 
+ sram_sp_cell 
* No parameters

xbitcell_0_13 
+ bl[11] br[11] vdd vss vss vnb vpb 
+ sram_sp_cell 
* No parameters

xbitcell_0_14 
+ bl[12] br[12] vdd vss vss vnb vpb 
+ sram_sp_cell 
* No parameters

xbitcell_0_15 
+ bl[13] br[13] vdd vss vss vnb vpb 
+ sram_sp_cell 
* No parameters

xbitcell_0_16 
+ bl[14] br[14] vdd vss vss vnb vpb 
+ sram_sp_cell 
* No parameters

xbitcell_0_17 
+ bl[15] br[15] vdd vss vss vnb vpb 
+ sram_sp_cell 
* No parameters

xbitcell_0_18 
+ bl[16] br[16] vdd vss vss vnb vpb 
+ sram_sp_cell 
* No parameters

xbitcell_0_19 
+ bl[17] br[17] vdd vss vss vnb vpb 
+ sram_sp_cell 
* No parameters

xbitcell_0_20 
+ bl[18] br[18] vdd vss vss vnb vpb 
+ sram_sp_cell 
* No parameters

xbitcell_0_21 
+ bl[19] br[19] vdd vss vss vnb vpb 
+ sram_sp_cell 
* No parameters

xbitcell_0_22 
+ bl[20] br[20] vdd vss vss vnb vpb 
+ sram_sp_cell 
* No parameters

xbitcell_0_23 
+ bl[21] br[21] vdd vss vss vnb vpb 
+ sram_sp_cell 
* No parameters

xbitcell_0_24 
+ bl[22] br[22] vdd vss vss vnb vpb 
+ sram_sp_cell 
* No parameters

xbitcell_0_25 
+ bl[23] br[23] vdd vss vss vnb vpb 
+ sram_sp_cell 
* No parameters

xbitcell_0_26 
+ bl[24] br[24] vdd vss vss vnb vpb 
+ sram_sp_cell 
* No parameters

xbitcell_0_27 
+ bl[25] br[25] vdd vss vss vnb vpb 
+ sram_sp_cell 
* No parameters

xbitcell_0_28 
+ bl[26] br[26] vdd vss vss vnb vpb 
+ sram_sp_cell 
* No parameters

xbitcell_0_29 
+ bl[27] br[27] vdd vss vss vnb vpb 
+ sram_sp_cell 
* No parameters

xbitcell_0_30 
+ bl[28] br[28] vdd vss vss vnb vpb 
+ sram_sp_cell 
* No parameters

xbitcell_0_31 
+ bl[29] br[29] vdd vss vss vnb vpb 
+ sram_sp_cell 
* No parameters

xbitcell_0_32 
+ bl[30] br[30] vdd vss vss vnb vpb 
+ sram_sp_cell 
* No parameters

xbitcell_0_33 
+ bl[31] br[31] vdd vss vss vnb vpb 
+ sram_sp_cell 
* No parameters

xbitcell_0_34 
+ bl[32] br[32] vdd vss vss vnb vpb 
+ sram_sp_cell 
* No parameters

xbitcell_0_35 
+ bl[33] br[33] vdd vss vss vnb vpb 
+ sram_sp_cell 
* No parameters

xbitcell_0_36 
+ bl[34] br[34] vdd vss vss vnb vpb 
+ sram_sp_cell 
* No parameters

xbitcell_0_37 
+ bl[35] br[35] vdd vss vss vnb vpb 
+ sram_sp_cell 
* No parameters

xbitcell_0_38 
+ bl[36] br[36] vdd vss vss vnb vpb 
+ sram_sp_cell 
* No parameters

xbitcell_0_39 
+ bl[37] br[37] vdd vss vss vnb vpb 
+ sram_sp_cell 
* No parameters

xbitcell_0_40 
+ bl[38] br[38] vdd vss vss vnb vpb 
+ sram_sp_cell 
* No parameters

xbitcell_0_41 
+ bl[39] br[39] vdd vss vss vnb vpb 
+ sram_sp_cell 
* No parameters

xbitcell_0_42 
+ bl[40] br[40] vdd vss vss vnb vpb 
+ sram_sp_cell 
* No parameters

xbitcell_0_43 
+ bl[41] br[41] vdd vss vss vnb vpb 
+ sram_sp_cell 
* No parameters

xbitcell_0_44 
+ bl[42] br[42] vdd vss vss vnb vpb 
+ sram_sp_cell 
* No parameters

xbitcell_0_45 
+ bl[43] br[43] vdd vss vss vnb vpb 
+ sram_sp_cell 
* No parameters

xbitcell_0_46 
+ bl[44] br[44] vdd vss vss vnb vpb 
+ sram_sp_cell 
* No parameters

xbitcell_0_47 
+ bl[45] br[45] vdd vss vss vnb vpb 
+ sram_sp_cell 
* No parameters

xbitcell_0_48 
+ bl[46] br[46] vdd vss vss vnb vpb 
+ sram_sp_cell 
* No parameters

xbitcell_0_49 
+ bl[47] br[47] vdd vss vss vnb vpb 
+ sram_sp_cell 
* No parameters

xbitcell_0_50 
+ bl[48] br[48] vdd vss vss vnb vpb 
+ sram_sp_cell 
* No parameters

xbitcell_0_51 
+ bl[49] br[49] vdd vss vss vnb vpb 
+ sram_sp_cell 
* No parameters

xbitcell_0_52 
+ bl[50] br[50] vdd vss vss vnb vpb 
+ sram_sp_cell 
* No parameters

xbitcell_0_53 
+ bl[51] br[51] vdd vss vss vnb vpb 
+ sram_sp_cell 
* No parameters

xbitcell_0_54 
+ bl[52] br[52] vdd vss vss vnb vpb 
+ sram_sp_cell 
* No parameters

xbitcell_0_55 
+ bl[53] br[53] vdd vss vss vnb vpb 
+ sram_sp_cell 
* No parameters

xbitcell_0_56 
+ bl[54] br[54] vdd vss vss vnb vpb 
+ sram_sp_cell 
* No parameters

xbitcell_0_57 
+ bl[55] br[55] vdd vss vss vnb vpb 
+ sram_sp_cell 
* No parameters

xbitcell_0_58 
+ bl[56] br[56] vdd vss vss vnb vpb 
+ sram_sp_cell 
* No parameters

xbitcell_0_59 
+ bl[57] br[57] vdd vss vss vnb vpb 
+ sram_sp_cell 
* No parameters

xbitcell_0_60 
+ bl[58] br[58] vdd vss vss vnb vpb 
+ sram_sp_cell 
* No parameters

xbitcell_0_61 
+ bl[59] br[59] vdd vss vss vnb vpb 
+ sram_sp_cell 
* No parameters

xbitcell_0_62 
+ bl[60] br[60] vdd vss vss vnb vpb 
+ sram_sp_cell 
* No parameters

xbitcell_0_63 
+ bl[61] br[61] vdd vss vss vnb vpb 
+ sram_sp_cell 
* No parameters

xbitcell_0_64 
+ bl[62] br[62] vdd vss vss vnb vpb 
+ sram_sp_cell 
* No parameters

xbitcell_0_65 
+ bl[63] br[63] vdd vss vss vnb vpb 
+ sram_sp_cell 
* No parameters

xbitcell_0_66 
+ bl[64] br[64] vdd vss vss vnb vpb 
+ sram_sp_cell 
* No parameters

xbitcell_0_67 
+ bl[65] br[65] vdd vss vss vnb vpb 
+ sram_sp_cell 
* No parameters

xbitcell_0_68 
+ bl[66] br[66] vdd vss vss vnb vpb 
+ sram_sp_cell 
* No parameters

xbitcell_0_69 
+ bl[67] br[67] vdd vss vss vnb vpb 
+ sram_sp_cell 
* No parameters

xbitcell_0_70 
+ bl[68] br[68] vdd vss vss vnb vpb 
+ sram_sp_cell 
* No parameters

xbitcell_0_71 
+ bl[69] br[69] vdd vss vss vnb vpb 
+ sram_sp_cell 
* No parameters

xbitcell_0_72 
+ bl[70] br[70] vdd vss vss vnb vpb 
+ sram_sp_cell 
* No parameters

xbitcell_0_73 
+ bl[71] br[71] vdd vss vss vnb vpb 
+ sram_sp_cell 
* No parameters

xbitcell_0_74 
+ bl[72] br[72] vdd vss vss vnb vpb 
+ sram_sp_cell 
* No parameters

xbitcell_0_75 
+ bl[73] br[73] vdd vss vss vnb vpb 
+ sram_sp_cell 
* No parameters

xbitcell_0_76 
+ bl[74] br[74] vdd vss vss vnb vpb 
+ sram_sp_cell 
* No parameters

xbitcell_0_77 
+ bl[75] br[75] vdd vss vss vnb vpb 
+ sram_sp_cell 
* No parameters

xbitcell_0_78 
+ bl[76] br[76] vdd vss vss vnb vpb 
+ sram_sp_cell 
* No parameters

xbitcell_0_79 
+ bl[77] br[77] vdd vss vss vnb vpb 
+ sram_sp_cell 
* No parameters

xbitcell_0_80 
+ bl[78] br[78] vdd vss vss vnb vpb 
+ sram_sp_cell 
* No parameters

xbitcell_0_81 
+ bl[79] br[79] vdd vss vss vnb vpb 
+ sram_sp_cell 
* No parameters

xbitcell_0_82 
+ bl[80] br[80] vdd vss vss vnb vpb 
+ sram_sp_cell 
* No parameters

xbitcell_0_83 
+ bl[81] br[81] vdd vss vss vnb vpb 
+ sram_sp_cell 
* No parameters

xbitcell_0_84 
+ bl[82] br[82] vdd vss vss vnb vpb 
+ sram_sp_cell 
* No parameters

xbitcell_0_85 
+ bl[83] br[83] vdd vss vss vnb vpb 
+ sram_sp_cell 
* No parameters

xbitcell_0_86 
+ bl[84] br[84] vdd vss vss vnb vpb 
+ sram_sp_cell 
* No parameters

xbitcell_0_87 
+ bl[85] br[85] vdd vss vss vnb vpb 
+ sram_sp_cell 
* No parameters

xbitcell_0_88 
+ bl[86] br[86] vdd vss vss vnb vpb 
+ sram_sp_cell 
* No parameters

xbitcell_0_89 
+ bl[87] br[87] vdd vss vss vnb vpb 
+ sram_sp_cell 
* No parameters

xbitcell_0_90 
+ bl[88] br[88] vdd vss vss vnb vpb 
+ sram_sp_cell 
* No parameters

xbitcell_0_91 
+ bl[89] br[89] vdd vss vss vnb vpb 
+ sram_sp_cell 
* No parameters

xbitcell_0_92 
+ bl[90] br[90] vdd vss vss vnb vpb 
+ sram_sp_cell 
* No parameters

xbitcell_0_93 
+ bl[91] br[91] vdd vss vss vnb vpb 
+ sram_sp_cell 
* No parameters

xbitcell_0_94 
+ bl[92] br[92] vdd vss vss vnb vpb 
+ sram_sp_cell 
* No parameters

xbitcell_0_95 
+ bl[93] br[93] vdd vss vss vnb vpb 
+ sram_sp_cell 
* No parameters

xbitcell_0_96 
+ bl[94] br[94] vdd vss vss vnb vpb 
+ sram_sp_cell 
* No parameters

xbitcell_0_97 
+ bl[95] br[95] vdd vss vss vnb vpb 
+ sram_sp_cell 
* No parameters

xbitcell_0_98 
+ bl[96] br[96] vdd vss vss vnb vpb 
+ sram_sp_cell 
* No parameters

xbitcell_0_99 
+ bl[97] br[97] vdd vss vss vnb vpb 
+ sram_sp_cell 
* No parameters

xbitcell_0_100 
+ bl[98] br[98] vdd vss vss vnb vpb 
+ sram_sp_cell 
* No parameters

xbitcell_0_101 
+ bl[99] br[99] vdd vss vss vnb vpb 
+ sram_sp_cell 
* No parameters

xbitcell_0_102 
+ bl[100] br[100] vdd vss vss vnb vpb 
+ sram_sp_cell 
* No parameters

xbitcell_0_103 
+ bl[101] br[101] vdd vss vss vnb vpb 
+ sram_sp_cell 
* No parameters

xbitcell_0_104 
+ bl[102] br[102] vdd vss vss vnb vpb 
+ sram_sp_cell 
* No parameters

xbitcell_0_105 
+ bl[103] br[103] vdd vss vss vnb vpb 
+ sram_sp_cell 
* No parameters

xbitcell_0_106 
+ bl[104] br[104] vdd vss vss vnb vpb 
+ sram_sp_cell 
* No parameters

xbitcell_0_107 
+ bl[105] br[105] vdd vss vss vnb vpb 
+ sram_sp_cell 
* No parameters

xbitcell_0_108 
+ bl[106] br[106] vdd vss vss vnb vpb 
+ sram_sp_cell 
* No parameters

xbitcell_0_109 
+ bl[107] br[107] vdd vss vss vnb vpb 
+ sram_sp_cell 
* No parameters

xbitcell_0_110 
+ bl[108] br[108] vdd vss vss vnb vpb 
+ sram_sp_cell 
* No parameters

xbitcell_0_111 
+ bl[109] br[109] vdd vss vss vnb vpb 
+ sram_sp_cell 
* No parameters

xbitcell_0_112 
+ bl[110] br[110] vdd vss vss vnb vpb 
+ sram_sp_cell 
* No parameters

xbitcell_0_113 
+ bl[111] br[111] vdd vss vss vnb vpb 
+ sram_sp_cell 
* No parameters

xbitcell_0_114 
+ bl[112] br[112] vdd vss vss vnb vpb 
+ sram_sp_cell 
* No parameters

xbitcell_0_115 
+ bl[113] br[113] vdd vss vss vnb vpb 
+ sram_sp_cell 
* No parameters

xbitcell_0_116 
+ bl[114] br[114] vdd vss vss vnb vpb 
+ sram_sp_cell 
* No parameters

xbitcell_0_117 
+ bl[115] br[115] vdd vss vss vnb vpb 
+ sram_sp_cell 
* No parameters

xbitcell_0_118 
+ bl[116] br[116] vdd vss vss vnb vpb 
+ sram_sp_cell 
* No parameters

xbitcell_0_119 
+ bl[117] br[117] vdd vss vss vnb vpb 
+ sram_sp_cell 
* No parameters

xbitcell_0_120 
+ bl[118] br[118] vdd vss vss vnb vpb 
+ sram_sp_cell 
* No parameters

xbitcell_0_121 
+ bl[119] br[119] vdd vss vss vnb vpb 
+ sram_sp_cell 
* No parameters

xbitcell_0_122 
+ bl[120] br[120] vdd vss vss vnb vpb 
+ sram_sp_cell 
* No parameters

xbitcell_0_123 
+ bl[121] br[121] vdd vss vss vnb vpb 
+ sram_sp_cell 
* No parameters

xbitcell_0_124 
+ bl[122] br[122] vdd vss vss vnb vpb 
+ sram_sp_cell 
* No parameters

xbitcell_0_125 
+ bl[123] br[123] vdd vss vss vnb vpb 
+ sram_sp_cell 
* No parameters

xbitcell_0_126 
+ bl[124] br[124] vdd vss vss vnb vpb 
+ sram_sp_cell 
* No parameters

xbitcell_0_127 
+ bl[125] br[125] vdd vss vss vnb vpb 
+ sram_sp_cell 
* No parameters

xbitcell_0_128 
+ bl[126] br[126] vdd vss vss vnb vpb 
+ sram_sp_cell 
* No parameters

xbitcell_0_129 
+ bl[127] br[127] vdd vss vss vnb vpb 
+ sram_sp_cell 
* No parameters

xbitcell_0_130 
+ vdd vdd vdd vss vss vnb vpb 
+ sram_sp_cell 
* No parameters

xbitcell_0_131 
+ vdd vdd vdd vss vss vnb vpb 
+ sram_sp_cell 
* No parameters

xbitcell_1_0 
+ vdd vdd vdd vss vss vnb vpb 
+ sram_sp_cell 
* No parameters

xbitcell_1_1 
+ rbl rbr vdd vss vss vnb vpb 
+ sram_sp_cell 
* No parameters

xbitcell_1_2 
+ bl[0] br[0] vdd vss vss vnb vpb 
+ sram_sp_cell 
* No parameters

xbitcell_1_3 
+ bl[1] br[1] vdd vss vss vnb vpb 
+ sram_sp_cell 
* No parameters

xbitcell_1_4 
+ bl[2] br[2] vdd vss vss vnb vpb 
+ sram_sp_cell 
* No parameters

xbitcell_1_5 
+ bl[3] br[3] vdd vss vss vnb vpb 
+ sram_sp_cell 
* No parameters

xbitcell_1_6 
+ bl[4] br[4] vdd vss vss vnb vpb 
+ sram_sp_cell 
* No parameters

xbitcell_1_7 
+ bl[5] br[5] vdd vss vss vnb vpb 
+ sram_sp_cell 
* No parameters

xbitcell_1_8 
+ bl[6] br[6] vdd vss vss vnb vpb 
+ sram_sp_cell 
* No parameters

xbitcell_1_9 
+ bl[7] br[7] vdd vss vss vnb vpb 
+ sram_sp_cell 
* No parameters

xbitcell_1_10 
+ bl[8] br[8] vdd vss vss vnb vpb 
+ sram_sp_cell 
* No parameters

xbitcell_1_11 
+ bl[9] br[9] vdd vss vss vnb vpb 
+ sram_sp_cell 
* No parameters

xbitcell_1_12 
+ bl[10] br[10] vdd vss vss vnb vpb 
+ sram_sp_cell 
* No parameters

xbitcell_1_13 
+ bl[11] br[11] vdd vss vss vnb vpb 
+ sram_sp_cell 
* No parameters

xbitcell_1_14 
+ bl[12] br[12] vdd vss vss vnb vpb 
+ sram_sp_cell 
* No parameters

xbitcell_1_15 
+ bl[13] br[13] vdd vss vss vnb vpb 
+ sram_sp_cell 
* No parameters

xbitcell_1_16 
+ bl[14] br[14] vdd vss vss vnb vpb 
+ sram_sp_cell 
* No parameters

xbitcell_1_17 
+ bl[15] br[15] vdd vss vss vnb vpb 
+ sram_sp_cell 
* No parameters

xbitcell_1_18 
+ bl[16] br[16] vdd vss vss vnb vpb 
+ sram_sp_cell 
* No parameters

xbitcell_1_19 
+ bl[17] br[17] vdd vss vss vnb vpb 
+ sram_sp_cell 
* No parameters

xbitcell_1_20 
+ bl[18] br[18] vdd vss vss vnb vpb 
+ sram_sp_cell 
* No parameters

xbitcell_1_21 
+ bl[19] br[19] vdd vss vss vnb vpb 
+ sram_sp_cell 
* No parameters

xbitcell_1_22 
+ bl[20] br[20] vdd vss vss vnb vpb 
+ sram_sp_cell 
* No parameters

xbitcell_1_23 
+ bl[21] br[21] vdd vss vss vnb vpb 
+ sram_sp_cell 
* No parameters

xbitcell_1_24 
+ bl[22] br[22] vdd vss vss vnb vpb 
+ sram_sp_cell 
* No parameters

xbitcell_1_25 
+ bl[23] br[23] vdd vss vss vnb vpb 
+ sram_sp_cell 
* No parameters

xbitcell_1_26 
+ bl[24] br[24] vdd vss vss vnb vpb 
+ sram_sp_cell 
* No parameters

xbitcell_1_27 
+ bl[25] br[25] vdd vss vss vnb vpb 
+ sram_sp_cell 
* No parameters

xbitcell_1_28 
+ bl[26] br[26] vdd vss vss vnb vpb 
+ sram_sp_cell 
* No parameters

xbitcell_1_29 
+ bl[27] br[27] vdd vss vss vnb vpb 
+ sram_sp_cell 
* No parameters

xbitcell_1_30 
+ bl[28] br[28] vdd vss vss vnb vpb 
+ sram_sp_cell 
* No parameters

xbitcell_1_31 
+ bl[29] br[29] vdd vss vss vnb vpb 
+ sram_sp_cell 
* No parameters

xbitcell_1_32 
+ bl[30] br[30] vdd vss vss vnb vpb 
+ sram_sp_cell 
* No parameters

xbitcell_1_33 
+ bl[31] br[31] vdd vss vss vnb vpb 
+ sram_sp_cell 
* No parameters

xbitcell_1_34 
+ bl[32] br[32] vdd vss vss vnb vpb 
+ sram_sp_cell 
* No parameters

xbitcell_1_35 
+ bl[33] br[33] vdd vss vss vnb vpb 
+ sram_sp_cell 
* No parameters

xbitcell_1_36 
+ bl[34] br[34] vdd vss vss vnb vpb 
+ sram_sp_cell 
* No parameters

xbitcell_1_37 
+ bl[35] br[35] vdd vss vss vnb vpb 
+ sram_sp_cell 
* No parameters

xbitcell_1_38 
+ bl[36] br[36] vdd vss vss vnb vpb 
+ sram_sp_cell 
* No parameters

xbitcell_1_39 
+ bl[37] br[37] vdd vss vss vnb vpb 
+ sram_sp_cell 
* No parameters

xbitcell_1_40 
+ bl[38] br[38] vdd vss vss vnb vpb 
+ sram_sp_cell 
* No parameters

xbitcell_1_41 
+ bl[39] br[39] vdd vss vss vnb vpb 
+ sram_sp_cell 
* No parameters

xbitcell_1_42 
+ bl[40] br[40] vdd vss vss vnb vpb 
+ sram_sp_cell 
* No parameters

xbitcell_1_43 
+ bl[41] br[41] vdd vss vss vnb vpb 
+ sram_sp_cell 
* No parameters

xbitcell_1_44 
+ bl[42] br[42] vdd vss vss vnb vpb 
+ sram_sp_cell 
* No parameters

xbitcell_1_45 
+ bl[43] br[43] vdd vss vss vnb vpb 
+ sram_sp_cell 
* No parameters

xbitcell_1_46 
+ bl[44] br[44] vdd vss vss vnb vpb 
+ sram_sp_cell 
* No parameters

xbitcell_1_47 
+ bl[45] br[45] vdd vss vss vnb vpb 
+ sram_sp_cell 
* No parameters

xbitcell_1_48 
+ bl[46] br[46] vdd vss vss vnb vpb 
+ sram_sp_cell 
* No parameters

xbitcell_1_49 
+ bl[47] br[47] vdd vss vss vnb vpb 
+ sram_sp_cell 
* No parameters

xbitcell_1_50 
+ bl[48] br[48] vdd vss vss vnb vpb 
+ sram_sp_cell 
* No parameters

xbitcell_1_51 
+ bl[49] br[49] vdd vss vss vnb vpb 
+ sram_sp_cell 
* No parameters

xbitcell_1_52 
+ bl[50] br[50] vdd vss vss vnb vpb 
+ sram_sp_cell 
* No parameters

xbitcell_1_53 
+ bl[51] br[51] vdd vss vss vnb vpb 
+ sram_sp_cell 
* No parameters

xbitcell_1_54 
+ bl[52] br[52] vdd vss vss vnb vpb 
+ sram_sp_cell 
* No parameters

xbitcell_1_55 
+ bl[53] br[53] vdd vss vss vnb vpb 
+ sram_sp_cell 
* No parameters

xbitcell_1_56 
+ bl[54] br[54] vdd vss vss vnb vpb 
+ sram_sp_cell 
* No parameters

xbitcell_1_57 
+ bl[55] br[55] vdd vss vss vnb vpb 
+ sram_sp_cell 
* No parameters

xbitcell_1_58 
+ bl[56] br[56] vdd vss vss vnb vpb 
+ sram_sp_cell 
* No parameters

xbitcell_1_59 
+ bl[57] br[57] vdd vss vss vnb vpb 
+ sram_sp_cell 
* No parameters

xbitcell_1_60 
+ bl[58] br[58] vdd vss vss vnb vpb 
+ sram_sp_cell 
* No parameters

xbitcell_1_61 
+ bl[59] br[59] vdd vss vss vnb vpb 
+ sram_sp_cell 
* No parameters

xbitcell_1_62 
+ bl[60] br[60] vdd vss vss vnb vpb 
+ sram_sp_cell 
* No parameters

xbitcell_1_63 
+ bl[61] br[61] vdd vss vss vnb vpb 
+ sram_sp_cell 
* No parameters

xbitcell_1_64 
+ bl[62] br[62] vdd vss vss vnb vpb 
+ sram_sp_cell 
* No parameters

xbitcell_1_65 
+ bl[63] br[63] vdd vss vss vnb vpb 
+ sram_sp_cell 
* No parameters

xbitcell_1_66 
+ bl[64] br[64] vdd vss vss vnb vpb 
+ sram_sp_cell 
* No parameters

xbitcell_1_67 
+ bl[65] br[65] vdd vss vss vnb vpb 
+ sram_sp_cell 
* No parameters

xbitcell_1_68 
+ bl[66] br[66] vdd vss vss vnb vpb 
+ sram_sp_cell 
* No parameters

xbitcell_1_69 
+ bl[67] br[67] vdd vss vss vnb vpb 