* Substrate SPICE library
* This is a generated file. Be careful when editing manually: this file may be overwritten.


.SUBCKT mos_w3000_l150_m1_nf1_id0 d g s b

  X0 d g s b sky130_fd_pr__nfet_01v8 l=0.150 nf=1 w=3.000


.ENDS mos_w3000_l150_m1_nf1_id0

.SUBCKT mos_w2500_l150_m1_nf1_id1 d g s b

  X0 d g s b sky130_fd_pr__pfet_01v8 l=0.150 nf=1 w=2.500


.ENDS mos_w2500_l150_m1_nf1_id1

.SUBCKT nand3 vdd vss a b c y

  Xn1 x1 a vss vss mos_w3000_l150_m1_nf1_id0
  Xn2 x2 b x1 vss mos_w3000_l150_m1_nf1_id0
  Xn3 y c x2 vss mos_w3000_l150_m1_nf1_id0
  Xp1 y a vdd vdd mos_w2500_l150_m1_nf1_id1
  Xp2 y b vdd vdd mos_w2500_l150_m1_nf1_id1
  Xp3 y c vdd vdd mos_w2500_l150_m1_nf1_id1

.ENDS nand3

.SUBCKT mos_w800_l150_m1_nf1_id0 d g s b

  X0 d g s b sky130_fd_pr__nfet_01v8 l=0.150 nf=1 w=0.800


.ENDS mos_w800_l150_m1_nf1_id0

.SUBCKT mos_w2000_l150_m1_nf1_id0 d g s b

  X0 d g s b sky130_fd_pr__nfet_01v8 l=0.150 nf=1 w=2.000


.ENDS mos_w2000_l150_m1_nf1_id0

.SUBCKT mos_w2950_l150_m1_nf1_id1 d g s b

  X0 d g s b sky130_fd_pr__pfet_01v8 l=0.150 nf=1 w=2.950


.ENDS mos_w2950_l150_m1_nf1_id1

.SUBCKT column_mos vdd vss bl

  Xgate_nmos vss bl vss vss mos_w800_l150_m1_nf1_id0
  Xdrain_nmos bl vss vss vss mos_w2000_l150_m1_nf1_id0
  Xdrain_pmos bl vdd vdd vdd mos_w2950_l150_m1_nf1_id1

.ENDS column_mos

.SUBCKT mos_w1250_l150_m1_nf1_id1 d g s b

  X0 d g s b sky130_fd_pr__pfet_01v8 l=0.150 nf=1 w=1.250


.ENDS mos_w1250_l150_m1_nf1_id1

.SUBCKT mos_w500_l150_m1_nf1_id0 d g s b

  X0 d g s b sky130_fd_pr__nfet_01v8 l=0.150 nf=1 w=0.500


.ENDS mos_w500_l150_m1_nf1_id0

.SUBCKT folded_inv vdd vss a y

  XMP0 y a vdd vdd mos_w1250_l150_m1_nf1_id1
  XMN0 y a vss vss mos_w500_l150_m1_nf1_id0
  XMP1 y a vdd vdd mos_w1250_l150_m1_nf1_id1
  XMN1 y a vss vss mos_w500_l150_m1_nf1_id0

.ENDS folded_inv

.SUBCKT mos_w700_l150_m1_nf1_id1 d g s b

  X0 d g s b sky130_fd_pr__pfet_01v8 l=0.150 nf=1 w=0.700


.ENDS mos_w700_l150_m1_nf1_id1

.SUBCKT mos_w700_l150_m1_nf1_id0 d g s b

  X0 d g s b sky130_fd_pr__nfet_01v8 l=0.150 nf=1 w=0.700


.ENDS mos_w700_l150_m1_nf1_id0

.SUBCKT multi_finger_inv_3 vdd vss a y

  XMP0 y a vdd vdd mos_w700_l150_m1_nf1_id1
  XMP1 y a vdd vdd mos_w700_l150_m1_nf1_id1
  XMP2 y a vdd vdd mos_w700_l150_m1_nf1_id1
  XMP3 y a vdd vdd mos_w700_l150_m1_nf1_id1
  XMP4 y a vdd vdd mos_w700_l150_m1_nf1_id1
  XMP5 y a vdd vdd mos_w700_l150_m1_nf1_id1
  XMP6 y a vdd vdd mos_w700_l150_m1_nf1_id1
  XMP7 y a vdd vdd mos_w700_l150_m1_nf1_id1
  XMN0 y a vss vss mos_w700_l150_m1_nf1_id0
  XMN1 y a vss vss mos_w700_l150_m1_nf1_id0
  XMN2 y a vss vss mos_w700_l150_m1_nf1_id0

.ENDS multi_finger_inv_3

.SUBCKT decoder_stage_2 vdd vss y y_b predecode_0_0

  Xgate_0_0_0 vdd vss predecode_0_0 y_b folded_inv
  Xgate_1_0_0 vdd vss y_b y multi_finger_inv_3
  Xgate_1_0_1 vdd vss y_b y multi_finger_inv_3

.ENDS decoder_stage_2

.SUBCKT multi_finger_inv_4 vdd vss a y

  XMP0 y a vdd vdd mos_w700_l150_m1_nf1_id1
  XMP1 y a vdd vdd mos_w700_l150_m1_nf1_id1
  XMP2 y a vdd vdd mos_w700_l150_m1_nf1_id1
  XMP3 y a vdd vdd mos_w700_l150_m1_nf1_id1
  XMP4 y a vdd vdd mos_w700_l150_m1_nf1_id1
  XMP5 y a vdd vdd mos_w700_l150_m1_nf1_id1
  XMP6 y a vdd vdd mos_w700_l150_m1_nf1_id1
  XMN0 y a vss vss mos_w700_l150_m1_nf1_id0
  XMN1 y a vss vss mos_w700_l150_m1_nf1_id0
  XMN2 y a vss vss mos_w700_l150_m1_nf1_id0

.ENDS multi_finger_inv_4

.SUBCKT nand2 vdd vss a b y

  Xn1 x a vss vss mos_w2000_l150_m1_nf1_id0
  Xn2 y b x vss mos_w2000_l150_m1_nf1_id0
  Xp1 y a vdd vdd mos_w2500_l150_m1_nf1_id1
  Xp2 y b vdd vdd mos_w2500_l150_m1_nf1_id1

.ENDS nand2

.SUBCKT mos_w5000_l150_m1_nf1_id1 d g s b

  X0 d g s b sky130_fd_pr__pfet_01v8 l=0.150 nf=1 w=5.000


.ENDS mos_w5000_l150_m1_nf1_id1

.SUBCKT folded_inv_1 vdd vss a y

  XMP0 y a vdd vdd mos_w5000_l150_m1_nf1_id1
  XMN0 y a vss vss mos_w2000_l150_m1_nf1_id0
  XMP1 y a vdd vdd mos_w5000_l150_m1_nf1_id1
  XMN1 y a vss vss mos_w2000_l150_m1_nf1_id0

.ENDS folded_inv_1

.SUBCKT and2 vdd a b y yb vss

  X0 vdd vss a b yb nand2
  X0_1 vdd vss yb y folded_inv_1

.ENDS and2

.SUBCKT decoder_stage vdd vss y[0] y[1] y[2] y[3] y[4] y[5] y[6] y[7] y[8] y[9] y[10] y[11] y_b[0] y_b[1] y_b[2] y_b[3] y_b[4] y_b[5] y_b[6] y_b[7] y_b[8] y_b[9] y_b[10] y_b[11] wl_en in[0] in[1] in[2] in[3] in[4] in[5] in[6] in[7] in[8] in[9] in[10] in[11]

  Xgate_0_0_0 vdd wl_en in[0] y[0] y_b[0] vss and2
  Xgate_0_1_0 vdd wl_en in[1] y[1] y_b[1] vss and2
  Xgate_0_2_0 vdd wl_en in[2] y[2] y_b[2] vss and2
  Xgate_0_3_0 vdd wl_en in[3] y[3] y_b[3] vss and2
  Xgate_0_4_0 vdd wl_en in[4] y[4] y_b[4] vss and2
  Xgate_0_5_0 vdd wl_en in[5] y[5] y_b[5] vss and2
  Xgate_0_6_0 vdd wl_en in[6] y[6] y_b[6] vss and2
  Xgate_0_7_0 vdd wl_en in[7] y[7] y_b[7] vss and2
  Xgate_0_8_0 vdd wl_en in[8] y[8] y_b[8] vss and2
  Xgate_0_9_0 vdd wl_en in[9] y[9] y_b[9] vss and2
  Xgate_0_10_0 vdd wl_en in[10] y[10] y_b[10] vss and2
  Xgate_0_11_0 vdd wl_en in[11] y[11] y_b[11] vss and2

.ENDS decoder_stage

.SUBCKT mos_w2800_l150_m1_nf1_id1 d g s b

  X0 d g s b sky130_fd_pr__pfet_01v8 l=0.150 nf=1 w=2.800


.ENDS mos_w2800_l150_m1_nf1_id1

.SUBCKT mos_w1130_l150_m1_nf1_id0 d g s b

  X0 d g s b sky130_fd_pr__nfet_01v8 l=0.150 nf=1 w=1.130


.ENDS mos_w1130_l150_m1_nf1_id0

.SUBCKT folded_inv_5 vdd vss a y

  XMP0 y a vdd vdd mos_w2800_l150_m1_nf1_id1
  XMN0 y a vss vss mos_w1130_l150_m1_nf1_id0
  XMP1 y a vdd vdd mos_w2800_l150_m1_nf1_id1
  XMN1 y a vss vss mos_w1130_l150_m1_nf1_id0

.ENDS folded_inv_5

.SUBCKT mos_w650_l150_m1_nf1_id0 d g s b

  X0 d g s b sky130_fd_pr__nfet_01v8 l=0.150 nf=1 w=0.650


.ENDS mos_w650_l150_m1_nf1_id0

.SUBCKT sky130_fd_sc_hs__inv_2 A VGND VNB VPB VPWR Y

  X0 Y A VPWR VPB sky130_fd_pr__pfet_01v8 l=0.150 nf=1 w=1.120

  X1 VPWR A Y VPB sky130_fd_pr__pfet_01v8 l=0.150 nf=1 w=1.120

  X2 VGND A Y VNB sky130_fd_pr__nfet_01v8_lvt l=0.150 nf=1 w=0.740

  X3 Y A VGND VNB sky130_fd_pr__nfet_01v8_lvt l=0.150 nf=1 w=0.740


.ENDS sky130_fd_sc_hs__inv_2

.SUBCKT sky130_fd_sc_hs__inv_2_wrapper A VGND VNB VPB VPWR Y

  X0 A VGND VNB VPB VPWR Y sky130_fd_sc_hs__inv_2

.ENDS sky130_fd_sc_hs__inv_2_wrapper

.SUBCKT sky130_fd_sc_hs__inv_4 A VGND VNB VPB VPWR Y

  X0 VGND A Y VNB sky130_fd_pr__nfet_01v8_lvt l=0.150 nf=1 w=0.740

  X1 VPWR A Y VPB sky130_fd_pr__pfet_01v8 l=0.150 nf=1 w=1.120

  X2 VPWR A Y VPB sky130_fd_pr__pfet_01v8 l=0.150 nf=1 w=1.120

  X3 VGND A Y VNB sky130_fd_pr__nfet_01v8_lvt l=0.150 nf=1 w=0.740

  X4 Y A VGND VNB sky130_fd_pr__nfet_01v8_lvt l=0.150 nf=1 w=0.740

  X5 Y A VPWR VPB sky130_fd_pr__pfet_01v8 l=0.150 nf=1 w=1.120

  X6 Y A VPWR VPB sky130_fd_pr__pfet_01v8 l=0.150 nf=1 w=1.120

  X7 Y A VGND VNB sky130_fd_pr__nfet_01v8_lvt l=0.150 nf=1 w=0.740


.ENDS sky130_fd_sc_hs__inv_4

.SUBCKT sky130_fd_sc_hs__inv_4_wrapper A VGND VNB VPB VPWR Y

  X0 A VGND VNB VPB VPWR Y sky130_fd_sc_hs__inv_4

.ENDS sky130_fd_sc_hs__inv_4_wrapper

.SUBCKT inv_chain_16 din dout vdd vss

  Xinv0 din vss vss vdd vdd x[0] sky130_fd_sc_hs__inv_2_wrapper
  Xinv1 x[0] vss vss vdd vdd x[1] sky130_fd_sc_hs__inv_2_wrapper
  Xinv2 x[1] vss vss vdd vdd x[2] sky130_fd_sc_hs__inv_2_wrapper
  Xinv3 x[2] vss vss vdd vdd x[3] sky130_fd_sc_hs__inv_2_wrapper
  Xinv4 x[3] vss vss vdd vdd x[4] sky130_fd_sc_hs__inv_2_wrapper
  Xinv5 x[4] vss vss vdd vdd x[5] sky130_fd_sc_hs__inv_2_wrapper
  Xinv6 x[5] vss vss vdd vdd x[6] sky130_fd_sc_hs__inv_2_wrapper
  Xinv7 x[6] vss vss vdd vdd x[7] sky130_fd_sc_hs__inv_2_wrapper
  Xinv8 x[7] vss vss vdd vdd x[8] sky130_fd_sc_hs__inv_2_wrapper
  Xinv9 x[8] vss vss vdd vdd x[9] sky130_fd_sc_hs__inv_2_wrapper
  Xinv10 x[9] vss vss vdd vdd x[10] sky130_fd_sc_hs__inv_2_wrapper
  Xinv11 x[10] vss vss vdd vdd x[11] sky130_fd_sc_hs__inv_2_wrapper
  Xinv12 x[11] vss vss vdd vdd x[12] sky130_fd_sc_hs__inv_2_wrapper
  Xinv13 x[12] vss vss vdd vdd x[13] sky130_fd_sc_hs__inv_2_wrapper
  Xinv14 x[13] vss vss vdd vdd x[14] sky130_fd_sc_hs__inv_2_wrapper
  Xinv15 x[14] vss vss vdd vdd dout sky130_fd_sc_hs__inv_4_wrapper

.ENDS inv_chain_16

.SUBCKT sky130_fd_sc_hs__dfrbp_2 CLK D RESET_B VGND VNB VPB VPWR Q Q_N

  X0 a_1800_291# a_1586_149# VPWR VPB sky130_fd_pr__pfet_01v8 l=0.150 nf=1 w=0.420

  X1 VGND CLK a_728_331# VNB sky130_fd_pr__nfet_01v8_lvt l=0.150 nf=1 w=0.740

  X2 Q a_2363_352# VGND VNB sky130_fd_pr__nfet_01v8_lvt l=0.150 nf=1 w=0.740

  X3 VPWR CLK a_728_331# VPB sky130_fd_pr__pfet_01v8 l=0.150 nf=1 w=1.120

  X4 a_1499_149# a_728_331# a_1586_149# VNB sky130_fd_pr__nfet_01v8_lvt l=0.150 nf=1 w=0.420

  X5 a_536_81# a_331_392# a_614_81# VNB sky130_fd_pr__nfet_01v8_lvt l=0.150 nf=1 w=0.420

  X6 a_156_74# RESET_B VGND VNB sky130_fd_pr__nfet_01v8_lvt l=0.150 nf=1 w=0.420

  X7 a_298_294# a_818_418# a_614_81# VNB sky130_fd_pr__nfet_01v8_lvt l=0.150 nf=1 w=0.420

  X8 a_70_74# a_728_331# a_298_294# VNB sky130_fd_pr__nfet_01v8_lvt l=0.150 nf=1 w=0.420

  X9 a_331_392# a_728_331# a_1586_149# VPB sky130_fd_pr__pfet_01v8 l=0.150 nf=1 w=1.000

  X10 a_70_74# D a_156_74# VNB sky130_fd_pr__nfet_01v8_lvt l=0.150 nf=1 w=0.420

  X11 a_818_418# a_728_331# VGND VNB sky130_fd_pr__nfet_01v8_lvt l=0.150 nf=1 w=0.740

  X12 a_818_418# a_728_331# VPWR VPB sky130_fd_pr__pfet_01v8 l=0.150 nf=1 w=1.120

  X13 a_1586_149# a_818_418# a_1755_389# VPB sky130_fd_pr__pfet_01v8 l=0.150 nf=1 w=0.420

  X14 Q_N a_1586_149# VPWR VPB sky130_fd_pr__pfet_01v8 l=0.150 nf=1 w=1.120

  X15 a_298_294# a_818_418# a_70_74# VPB sky130_fd_pr__pfet_01v8 l=0.150 nf=1 w=0.420

  X16 VGND RESET_B a_536_81# VNB sky130_fd_pr__nfet_01v8_lvt l=0.150 nf=1 w=0.420

  X17 a_1755_389# a_1800_291# VPWR VPB sky130_fd_pr__pfet_01v8 l=0.150 nf=1 w=0.420

  X18 a_1586_149# a_818_418# a_331_392# VNB sky130_fd_pr__nfet_01v8_lvt l=0.150 nf=1 w=0.740

  X19 Q a_2363_352# VPWR VPB sky130_fd_pr__pfet_01v8 l=0.150 nf=1 w=1.120

  X20 VGND a_1586_149# Q_N VNB sky130_fd_pr__nfet_01v8_lvt l=0.150 nf=1 w=0.740

  X21 VGND a_1586_149# a_2363_352# VNB sky130_fd_pr__nfet_01v8_lvt l=0.150 nf=1 w=0.640

  X22 VPWR a_298_294# a_331_392# VPB sky130_fd_pr__pfet_01v8 l=0.150 nf=1 w=1.000

  X23 a_298_294# RESET_B VPWR VPB sky130_fd_pr__pfet_01v8 l=0.150 nf=1 w=0.420

  X24 a_1499_149# a_1800_291# VGND VNB sky130_fd_pr__nfet_01v8_lvt l=0.150 nf=1 w=0.420

  X25 VPWR a_331_392# a_683_485# VPB sky130_fd_pr__pfet_01v8 l=0.150 nf=1 w=0.420

  X26 VPWR D a_70_74# VPB sky130_fd_pr__pfet_01v8 l=0.150 nf=1 w=0.420

  X27 VPWR RESET_B a_1800_291# VPB sky130_fd_pr__pfet_01v8 l=0.150 nf=1 w=0.420

  X28 a_1974_74# a_1586_149# a_1800_291# VNB sky130_fd_pr__nfet_01v8_lvt l=0.150 nf=1 w=0.420

  X29 a_70_74# RESET_B VPWR VPB sky130_fd_pr__pfet_01v8 l=0.150 nf=1 w=0.420

  X30 Q_N a_1586_149# VGND VNB sky130_fd_pr__nfet_01v8_lvt l=0.150 nf=1 w=0.740

  X31 VPWR a_1586_149# a_2363_352# VPB sky130_fd_pr__pfet_01v8 l=0.150 nf=1 w=1.000

  X32 VGND a_2363_352# Q VNB sky130_fd_pr__nfet_01v8_lvt l=0.150 nf=1 w=0.740

  X33 VPWR a_1586_149# Q_N VPB sky130_fd_pr__pfet_01v8 l=0.150 nf=1 w=1.120

  X34 VGND RESET_B a_1974_74# VNB sky130_fd_pr__nfet_01v8_lvt l=0.150 nf=1 w=0.420

  X35 a_683_485# a_728_331# a_298_294# VPB sky130_fd_pr__pfet_01v8 l=0.150 nf=1 w=0.420

  X36 VGND a_298_294# a_331_392# VNB sky130_fd_pr__nfet_01v8_lvt l=0.150 nf=1 w=0.740

  X37 VPWR a_2363_352# Q VPB sky130_fd_pr__pfet_01v8 l=0.150 nf=1 w=1.120


.ENDS sky130_fd_sc_hs__dfrbp_2

.SUBCKT sky130_fd_sc_hs__dfrbp_2_wrapper CLK D RESET_B VGND VNB VPB VPWR Q Q_N

  X0 CLK D RESET_B VGND VNB VPB VPWR Q Q_N sky130_fd_sc_hs__dfrbp_2

.ENDS sky130_fd_sc_hs__dfrbp_2_wrapper

.SUBCKT dff_array_11 vdd vss clk rb d[0] d[1] d[2] d[3] d[4] d[5] d[6] d[7] d[8] d[9] d[10] q[0] q[1] q[2] q[3] q[4] q[5] q[6] q[7] q[8] q[9] q[10] qn[0] qn[1] qn[2] qn[3] qn[4] qn[5] qn[6] qn[7] qn[8] qn[9] qn[10]

  Xdff_0 clk d[0] rb vss vss vdd vdd q[0] qn[0] sky130_fd_sc_hs__dfrbp_2_wrapper
  Xdff_1 clk d[1] rb vss vss vdd vdd q[1] qn[1] sky130_fd_sc_hs__dfrbp_2_wrapper
  Xdff_2 clk d[2] rb vss vss vdd vdd q[2] qn[2] sky130_fd_sc_hs__dfrbp_2_wrapper
  Xdff_3 clk d[3] rb vss vss vdd vdd q[3] qn[3] sky130_fd_sc_hs__dfrbp_2_wrapper
  Xdff_4 clk d[4] rb vss vss vdd vdd q[4] qn[4] sky130_fd_sc_hs__dfrbp_2_wrapper
  Xdff_5 clk d[5] rb vss vss vdd vdd q[5] qn[5] sky130_fd_sc_hs__dfrbp_2_wrapper
  Xdff_6 clk d[6] rb vss vss vdd vdd q[6] qn[6] sky130_fd_sc_hs__dfrbp_2_wrapper
  Xdff_7 clk d[7] rb vss vss vdd vdd q[7] qn[7] sky130_fd_sc_hs__dfrbp_2_wrapper
  Xdff_8 clk d[8] rb vss vss vdd vdd q[8] qn[8] sky130_fd_sc_hs__dfrbp_2_wrapper
  Xdff_9 clk d[9] rb vss vss vdd vdd q[9] qn[9] sky130_fd_sc_hs__dfrbp_2_wrapper
  Xdff_10 clk d[10] rb vss vss vdd vdd q[10] qn[10] sky130_fd_sc_hs__dfrbp_2_wrapper

.ENDS dff_array_11

.SUBCKT sky130_fd_sc_hs__nand2_8 A B VGND VNB VPB VPWR Y

  X0 VGND B a_27_74# VNB sky130_fd_pr__nfet_01v8_lvt l=0.150 nf=1 w=0.740

  X1 Y A a_27_74# VNB sky130_fd_pr__nfet_01v8_lvt l=0.150 nf=1 w=0.740

  X2 Y B VPWR VPB sky130_fd_pr__pfet_01v8 l=0.150 nf=1 w=1.120

  X3 a_27_74# B VGND VNB sky130_fd_pr__nfet_01v8_lvt l=0.150 nf=1 w=0.740

  X4 Y A a_27_74# VNB sky130_fd_pr__nfet_01v8_lvt l=0.150 nf=1 w=0.740

  X5 VGND B a_27_74# VNB sky130_fd_pr__nfet_01v8_lvt l=0.150 nf=1 w=0.740

  X6 a_27_74# B VGND VNB sky130_fd_pr__nfet_01v8_lvt l=0.150 nf=1 w=0.740

  X7 a_27_74# A Y VNB sky130_fd_pr__nfet_01v8_lvt l=0.150 nf=1 w=0.740

  X8 VPWR A Y VPB sky130_fd_pr__pfet_01v8 l=0.150 nf=1 w=1.120

  X9 Y A a_27_74# VNB sky130_fd_pr__nfet_01v8_lvt l=0.150 nf=1 w=0.740

  X10 a_27_74# B VGND VNB sky130_fd_pr__nfet_01v8_lvt l=0.150 nf=1 w=0.740

  X11 a_27_74# A Y VNB sky130_fd_pr__nfet_01v8_lvt l=0.150 nf=1 w=0.740

  X12 VPWR B Y VPB sky130_fd_pr__pfet_01v8 l=0.150 nf=1 w=1.120

  X13 VPWR B Y VPB sky130_fd_pr__pfet_01v8 l=0.150 nf=1 w=1.120

  X14 a_27_74# B VGND VNB sky130_fd_pr__nfet_01v8_lvt l=0.150 nf=1 w=0.740

  X15 VPWR A Y VPB sky130_fd_pr__pfet_01v8 l=0.150 nf=1 w=1.120

  X16 VGND B a_27_74# VNB sky130_fd_pr__nfet_01v8_lvt l=0.150 nf=1 w=0.740

  X17 VGND B a_27_74# VNB sky130_fd_pr__nfet_01v8_lvt l=0.150 nf=1 w=0.740

  X18 a_27_74# A Y VNB sky130_fd_pr__nfet_01v8_lvt l=0.150 nf=1 w=0.740

  X19 Y B VPWR VPB sky130_fd_pr__pfet_01v8 l=0.150 nf=1 w=1.120

  X20 a_27_74# A Y VNB sky130_fd_pr__nfet_01v8_lvt l=0.150 nf=1 w=0.740

  X21 Y A VPWR VPB sky130_fd_pr__pfet_01v8 l=0.150 nf=1 w=1.120

  X22 Y A a_27_74# VNB sky130_fd_pr__nfet_01v8_lvt l=0.150 nf=1 w=0.740

  X23 Y A VPWR VPB sky130_fd_pr__pfet_01v8 l=0.150 nf=1 w=1.120


.ENDS sky130_fd_sc_hs__nand2_8

.SUBCKT sky130_fd_sc_hs__inv_16 A VGND VNB VPB VPWR Y

  X0 VPWR A Y VPB sky130_fd_pr__pfet_01v8 l=0.150 nf=1 w=1.120

  X1 Y A VGND VNB sky130_fd_pr__nfet_01v8_lvt l=0.150 nf=1 w=0.740

  X2 Y A VPWR VPB sky130_fd_pr__pfet_01v8 l=0.150 nf=1 w=1.120

  X3 Y A VPWR VPB sky130_fd_pr__pfet_01v8 l=0.150 nf=1 w=1.120

  X4 VPWR A Y VPB sky130_fd_pr__pfet_01v8 l=0.150 nf=1 w=1.120

  X5 VGND A Y VNB sky130_fd_pr__nfet_01v8_lvt l=0.150 nf=1 w=0.740

  X6 Y A VPWR VPB sky130_fd_pr__pfet_01v8 l=0.150 nf=1 w=1.120

  X7 VGND A Y VNB sky130_fd_pr__nfet_01v8_lvt l=0.150 nf=1 w=0.740

  X8 VPWR A Y VPB sky130_fd_pr__pfet_01v8 l=0.150 nf=1 w=1.120

  X9 VGND A Y VNB sky130_fd_pr__nfet_01v8_lvt l=0.150 nf=1 w=0.740

  X10 Y A VPWR VPB sky130_fd_pr__pfet_01v8 l=0.150 nf=1 w=1.120

  X11 VGND A Y VNB sky130_fd_pr__nfet_01v8_lvt l=0.150 nf=1 w=0.740

  X12 VPWR A Y VPB sky130_fd_pr__pfet_01v8 l=0.150 nf=1 w=1.120

  X13 VGND A Y VNB sky130_fd_pr__nfet_01v8_lvt l=0.150 nf=1 w=0.740

  X14 Y A VGND VNB sky130_fd_pr__nfet_01v8_lvt l=0.150 nf=1 w=0.740

  X15 Y A VGND VNB sky130_fd_pr__nfet_01v8_lvt l=0.150 nf=1 w=0.740

  X16 VGND A Y VNB sky130_fd_pr__nfet_01v8_lvt l=0.150 nf=1 w=0.740

  X17 VPWR A Y VPB sky130_fd_pr__pfet_01v8 l=0.150 nf=1 w=1.120

  X18 VGND A Y VNB sky130_fd_pr__nfet_01v8_lvt l=0.150 nf=1 w=0.740

  X19 Y A VGND VNB sky130_fd_pr__nfet_01v8_lvt l=0.150 nf=1 w=0.740

  X20 Y A VGND VNB sky130_fd_pr__nfet_01v8_lvt l=0.150 nf=1 w=0.740

  X21 VPWR A Y VPB sky130_fd_pr__pfet_01v8 l=0.150 nf=1 w=1.120

  X22 Y A VGND VNB sky130_fd_pr__nfet_01v8_lvt l=0.150 nf=1 w=0.740

  X23 Y A VPWR VPB sky130_fd_pr__pfet_01v8 l=0.150 nf=1 w=1.120

  X24 Y A VPWR VPB sky130_fd_pr__pfet_01v8 l=0.150 nf=1 w=1.120

  X25 VGND A Y VNB sky130_fd_pr__nfet_01v8_lvt l=0.150 nf=1 w=0.740

  X26 Y A VGND VNB sky130_fd_pr__nfet_01v8_lvt l=0.150 nf=1 w=0.740

  X27 Y A VGND VNB sky130_fd_pr__nfet_01v8_lvt l=0.150 nf=1 w=0.740

  X28 VPWR A Y VPB sky130_fd_pr__pfet_01v8 l=0.150 nf=1 w=1.120

  X29 VPWR A Y VPB sky130_fd_pr__pfet_01v8 l=0.150 nf=1 w=1.120

  X30 Y A VPWR VPB sky130_fd_pr__pfet_01v8 l=0.150 nf=1 w=1.120

  X31 Y A VPWR VPB sky130_fd_pr__pfet_01v8 l=0.150 nf=1 w=1.120


.ENDS sky130_fd_sc_hs__inv_16

.SUBCKT sky130_fd_sc_hs__inv_16_wrapper A VGND VNB VPB VPWR Y

  X0 A VGND VNB VPB VPWR Y sky130_fd_sc_hs__inv_16

.ENDS sky130_fd_sc_hs__inv_16_wrapper

.SUBCKT mos_w880_l150_m1_nf1_id0 d g s b

  X0 d g s b sky130_fd_pr__nfet_01v8 l=0.150 nf=1 w=0.880


.ENDS mos_w880_l150_m1_nf1_id0

.SUBCKT mos_w2180_l150_m1_nf1_id1 d g s b

  X0 d g s b sky130_fd_pr__pfet_01v8 l=0.150 nf=1 w=2.180


.ENDS mos_w2180_l150_m1_nf1_id1

.SUBCKT folded_inv_3 vdd vss a y

  XMP0 y a vdd vdd mos_w2180_l150_m1_nf1_id1
  XMN0 y a vss vss mos_w880_l150_m1_nf1_id0
  XMP1 y a vdd vdd mos_w2180_l150_m1_nf1_id1
  XMN1 y a vss vss mos_w880_l150_m1_nf1_id0

.ENDS folded_inv_3

.SUBCKT sky130_fd_sc_hs__mux2_4 A0 A1 S VGND VNB VPB VPWR X

  X0 a_27_368# S VPWR VPB sky130_fd_pr__pfet_01v8 l=0.150 nf=1 w=1.000

  X1 a_722_391# A0 a_193_241# VPB sky130_fd_pr__pfet_01v8 l=0.150 nf=1 w=1.000

  X2 a_722_391# S VPWR VPB sky130_fd_pr__pfet_01v8 l=0.150 nf=1 w=1.000

  X3 VGND a_27_368# a_937_119# VNB sky130_fd_pr__nfet_01v8_lvt l=0.150 nf=1 w=0.640

  X4 a_193_241# A1 a_936_391# VPB sky130_fd_pr__pfet_01v8 l=0.150 nf=1 w=1.000

  X5 a_709_119# S VGND VNB sky130_fd_pr__nfet_01v8_lvt l=0.150 nf=1 w=0.640

  X6 a_709_119# A1 a_193_241# VNB sky130_fd_pr__nfet_01v8_lvt l=0.150 nf=1 w=0.640

  X7 X a_193_241# VGND VNB sky130_fd_pr__nfet_01v8_lvt l=0.150 nf=1 w=0.740

  X8 X a_193_241# VPWR VPB sky130_fd_pr__pfet_01v8 l=0.150 nf=1 w=1.120

  X9 VPWR a_27_368# a_936_391# VPB sky130_fd_pr__pfet_01v8 l=0.150 nf=1 w=1.000

  X10 X a_193_241# VGND VNB sky130_fd_pr__nfet_01v8_lvt l=0.150 nf=1 w=0.740

  X11 a_193_241# A0 a_722_391# VPB sky130_fd_pr__pfet_01v8 l=0.150 nf=1 w=1.000

  X12 a_937_119# A0 a_193_241# VNB sky130_fd_pr__nfet_01v8_lvt l=0.150 nf=1 w=0.640

  X13 a_936_391# a_27_368# VPWR VPB sky130_fd_pr__pfet_01v8 l=0.150 nf=1 w=1.000

  X14 VGND a_193_241# X VNB sky130_fd_pr__nfet_01v8_lvt l=0.150 nf=1 w=0.740

  X15 VPWR a_193_241# X VPB sky130_fd_pr__pfet_01v8 l=0.150 nf=1 w=1.120

  X16 VPWR S a_722_391# VPB sky130_fd_pr__pfet_01v8 l=0.150 nf=1 w=1.000

  X17 a_936_391# A1 a_193_241# VPB sky130_fd_pr__pfet_01v8 l=0.150 nf=1 w=1.000

  X18 a_193_241# A0 a_937_119# VNB sky130_fd_pr__nfet_01v8_lvt l=0.150 nf=1 w=0.640

  X19 a_193_241# A1 a_709_119# VNB sky130_fd_pr__nfet_01v8_lvt l=0.150 nf=1 w=0.640

  X20 X a_193_241# VPWR VPB sky130_fd_pr__pfet_01v8 l=0.150 nf=1 w=1.120

  X21 VGND a_193_241# X VNB sky130_fd_pr__nfet_01v8_lvt l=0.150 nf=1 w=0.740

  X22 a_27_368# S VGND VNB sky130_fd_pr__nfet_01v8_lvt l=0.150 nf=1 w=0.640

  X23 a_937_119# a_27_368# VGND VNB sky130_fd_pr__nfet_01v8_lvt l=0.150 nf=1 w=0.640

  X24 VPWR a_193_241# X VPB sky130_fd_pr__pfet_01v8 l=0.150 nf=1 w=1.120

  X25 VGND S a_709_119# VNB sky130_fd_pr__nfet_01v8_lvt l=0.150 nf=1 w=0.640


.ENDS sky130_fd_sc_hs__mux2_4

.SUBCKT sramgen_sp_sense_amp clk inn inp outn outp VDD VSS

  XSWOP outp clk VDD VDD sky130_fd_pr__pfet_01v8 l=0.150 nf=2 w=1.000

  XSWON outn clk VDD VDD sky130_fd_pr__pfet_01v8 l=0.150 nf=2 w=1.000

  XSWMP midp clk VDD VDD sky130_fd_pr__pfet_01v8 l=0.150 nf=2 w=1.000

  XSWMN midn clk VDD VDD sky130_fd_pr__pfet_01v8 l=0.150 nf=2 w=1.000

  XPFBP outp outn VDD VDD sky130_fd_pr__pfet_01v8 l=0.150 nf=2 w=2.000

  XPFBN outn outp VDD VDD sky130_fd_pr__pfet_01v8 l=0.150 nf=2 w=2.000

  XTAIL tail clk VSS VSS sky130_fd_pr__nfet_01v8 l=0.150 nf=4 w=1.680

  XNFBP outp outn midp VSS sky130_fd_pr__nfet_01v8 l=0.150 nf=2 w=1.680

  XNFBN outn outp midn VSS sky130_fd_pr__nfet_01v8 l=0.150 nf=2 w=1.680

  XINP midn inp tail VSS sky130_fd_pr__nfet_01v8 l=0.150 nf=2 w=1.680

  XINN midp inn tail VSS sky130_fd_pr__nfet_01v8 l=0.150 nf=2 w=1.680


.ENDS sramgen_sp_sense_amp

.SUBCKT sky130_fd_sc_hs__buf_16 A VGND VNB VPB VPWR X

  X0 VPWR a_83_260# X VPB sky130_fd_pr__pfet_01v8 l=0.150 nf=1 w=1.120

  X1 VPWR a_83_260# X VPB sky130_fd_pr__pfet_01v8 l=0.150 nf=1 w=1.120

  X2 X a_83_260# VGND VNB sky130_fd_pr__nfet_01v8_lvt l=0.150 nf=1 w=0.740

  X3 VPWR a_83_260# X VPB sky130_fd_pr__pfet_01v8 l=0.150 nf=1 w=1.120

  X4 VPWR A a_83_260# VPB sky130_fd_pr__pfet_01v8 l=0.150 nf=1 w=1.120

  X5 X a_83_260# VGND VNB sky130_fd_pr__nfet_01v8_lvt l=0.150 nf=1 w=0.740

  X6 VPWR a_83_260# X VPB sky130_fd_pr__pfet_01v8 l=0.150 nf=1 w=1.120

  X7 VPWR A a_83_260# VPB sky130_fd_pr__pfet_01v8 l=0.150 nf=1 w=1.120

  X8 VGND a_83_260# X VNB sky130_fd_pr__nfet_01v8_lvt l=0.150 nf=1 w=0.740

  X9 VGND a_83_260# X VNB sky130_fd_pr__nfet_01v8_lvt l=0.150 nf=1 w=0.740

  X10 VPWR A a_83_260# VPB sky130_fd_pr__pfet_01v8 l=0.150 nf=1 w=1.120

  X11 VGND a_83_260# X VNB sky130_fd_pr__nfet_01v8_lvt l=0.150 nf=1 w=0.740

  X12 VPWR a_83_260# X VPB sky130_fd_pr__pfet_01v8 l=0.150 nf=1 w=1.120

  X13 a_83_260# A VPWR VPB sky130_fd_pr__pfet_01v8 l=0.150 nf=1 w=1.120

  X14 VPWR a_83_260# X VPB sky130_fd_pr__pfet_01v8 l=0.150 nf=1 w=1.120

  X15 VGND a_83_260# X VNB sky130_fd_pr__nfet_01v8_lvt l=0.150 nf=1 w=0.740

  X16 VGND A a_83_260# VNB sky130_fd_pr__nfet_01v8_lvt l=0.150 nf=1 w=0.740

  X17 X a_83_260# VGND VNB sky130_fd_pr__nfet_01v8_lvt l=0.150 nf=1 w=0.740

  X18 X a_83_260# VPWR VPB sky130_fd_pr__pfet_01v8 l=0.150 nf=1 w=1.120

  X19 X a_83_260# VGND VNB sky130_fd_pr__nfet_01v8_lvt l=0.150 nf=1 w=0.740

  X20 X a_83_260# VGND VNB sky130_fd_pr__nfet_01v8_lvt l=0.150 nf=1 w=0.740

  X21 X a_83_260# VPWR VPB sky130_fd_pr__pfet_01v8 l=0.150 nf=1 w=1.120

  X22 VGND A a_83_260# VNB sky130_fd_pr__nfet_01v8_lvt l=0.150 nf=1 w=0.740

  X23 VGND a_83_260# X VNB sky130_fd_pr__nfet_01v8_lvt l=0.150 nf=1 w=0.740

  X24 X a_83_260# VPWR VPB sky130_fd_pr__pfet_01v8 l=0.150 nf=1 w=1.120

  X25 a_83_260# A VGND VNB sky130_fd_pr__nfet_01v8_lvt l=0.150 nf=1 w=0.740

  X26 X a_83_260# VPWR VPB sky130_fd_pr__pfet_01v8 l=0.150 nf=1 w=1.120

  X27 a_83_260# A VGND VNB sky130_fd_pr__nfet_01v8_lvt l=0.150 nf=1 w=0.740

  X28 VPWR a_83_260# X VPB sky130_fd_pr__pfet_01v8 l=0.150 nf=1 w=1.120

  X29 a_83_260# A VPWR VPB sky130_fd_pr__pfet_01v8 l=0.150 nf=1 w=1.120

  X30 VGND a_83_260# X VNB sky130_fd_pr__nfet_01v8_lvt l=0.150 nf=1 w=0.740

  X31 X a_83_260# VPWR VPB sky130_fd_pr__pfet_01v8 l=0.150 nf=1 w=1.120

  X32 a_83_260# A VPWR VPB sky130_fd_pr__pfet_01v8 l=0.150 nf=1 w=1.120

  X33 X a_83_260# VPWR VPB sky130_fd_pr__pfet_01v8 l=0.150 nf=1 w=1.120

  X34 VGND a_83_260# X VNB sky130_fd_pr__nfet_01v8_lvt l=0.150 nf=1 w=0.740

  X35 a_83_260# A VGND VNB sky130_fd_pr__nfet_01v8_lvt l=0.150 nf=1 w=0.740

  X36 VGND a_83_260# X VNB sky130_fd_pr__nfet_01v8_lvt l=0.150 nf=1 w=0.740

  X37 VGND A a_83_260# VNB sky130_fd_pr__nfet_01v8_lvt l=0.150 nf=1 w=0.740

  X38 X a_83_260# VPWR VPB sky130_fd_pr__pfet_01v8 l=0.150 nf=1 w=1.120

  X39 X a_83_260# VGND VNB sky130_fd_pr__nfet_01v8_lvt l=0.150 nf=1 w=0.740

  X40 VPWR a_83_260# X VPB sky130_fd_pr__pfet_01v8 l=0.150 nf=1 w=1.120

  X41 X a_83_260# VPWR VPB sky130_fd_pr__pfet_01v8 l=0.150 nf=1 w=1.120

  X42 X a_83_260# VGND VNB sky130_fd_pr__nfet_01v8_lvt l=0.150 nf=1 w=0.740

  X43 X a_83_260# VGND VNB sky130_fd_pr__nfet_01v8_lvt l=0.150 nf=1 w=0.740


.ENDS sky130_fd_sc_hs__buf_16

.SUBCKT sky130_fd_sc_hs__buf_16_wrapper A VGND VNB VPB VPWR X

  X0 A VGND VNB VPB VPWR X sky130_fd_sc_hs__buf_16

.ENDS sky130_fd_sc_hs__buf_16_wrapper

.SUBCKT sky130_fd_sc_hs__and2_2 A B VGND VNB VPB VPWR X

  X0 a_31_74# B VPWR VPB sky130_fd_pr__pfet_01v8 l=0.150 nf=1 w=1.000

  X1 X a_31_74# VGND VNB sky130_fd_pr__nfet_01v8_lvt l=0.150 nf=1 w=0.740

  X2 X a_31_74# VPWR VPB sky130_fd_pr__pfet_01v8 l=0.150 nf=1 w=1.120

  X3 a_118_74# B VGND VNB sky130_fd_pr__nfet_01v8_lvt l=0.150 nf=1 w=0.740

  X4 a_31_74# A a_118_74# VNB sky130_fd_pr__nfet_01v8_lvt l=0.150 nf=1 w=0.740

  X5 VPWR A a_31_74# VPB sky130_fd_pr__pfet_01v8 l=0.150 nf=1 w=1.000

  X6 VPWR a_31_74# X VPB sky130_fd_pr__pfet_01v8 l=0.150 nf=1 w=1.120

  X7 VGND a_31_74# X VNB sky130_fd_pr__nfet_01v8_lvt l=0.150 nf=1 w=0.740


.ENDS sky130_fd_sc_hs__and2_2

.SUBCKT sky130_fd_sc_hs__and2_2_wrapper A B VGND VNB VPB VPWR X

  X0 A B VGND VNB VPB VPWR X sky130_fd_sc_hs__and2_2

.ENDS sky130_fd_sc_hs__and2_2_wrapper

.SUBCKT multi_finger_inv_9 vdd vss a y

  XMP0 y a vdd vdd mos_w700_l150_m1_nf1_id1
  XMP1 y a vdd vdd mos_w700_l150_m1_nf1_id1
  XMP2 y a vdd vdd mos_w700_l150_m1_nf1_id1
  XMP3 y a vdd vdd mos_w700_l150_m1_nf1_id1
  XMP4 y a vdd vdd mos_w700_l150_m1_nf1_id1
  XMP5 y a vdd vdd mos_w700_l150_m1_nf1_id1
  XMP6 y a vdd vdd mos_w700_l150_m1_nf1_id1
  XMP7 y a vdd vdd mos_w700_l150_m1_nf1_id1
  XMN0 y a vss vss mos_w700_l150_m1_nf1_id0
  XMN1 y a vss vss mos_w700_l150_m1_nf1_id0
  XMN2 y a vss vss mos_w700_l150_m1_nf1_id0

.ENDS multi_finger_inv_9

.SUBCKT sram_sp_colend BR VDD VSS BL VNB VPB

  X0 BR VNB BR VNB sky130_fd_pr__special_nfet_pass l=0.140 nf=1 w=0.140


.ENDS sram_sp_colend

.SUBCKT sky130_fd_sc_hs__nand2_4 A B VGND VNB VPB VPWR Y

  X0 VPWR A Y VPB sky130_fd_pr__pfet_01v8 l=0.150 nf=1 w=1.120

  X1 Y A a_27_74# VNB sky130_fd_pr__nfet_01v8_lvt l=0.150 nf=1 w=0.740

  X2 a_27_74# B VGND VNB sky130_fd_pr__nfet_01v8_lvt l=0.150 nf=1 w=0.740

  X3 VGND B a_27_74# VNB sky130_fd_pr__nfet_01v8_lvt l=0.150 nf=1 w=0.740

  X4 VGND B a_27_74# VNB sky130_fd_pr__nfet_01v8_lvt l=0.150 nf=1 w=0.740

  X5 a_27_74# A Y VNB sky130_fd_pr__nfet_01v8_lvt l=0.150 nf=1 w=0.740

  X6 Y A a_27_74# VNB sky130_fd_pr__nfet_01v8_lvt l=0.150 nf=1 w=0.740

  X7 VPWR B Y VPB sky130_fd_pr__pfet_01v8 l=0.150 nf=1 w=1.120

  X8 Y B VPWR VPB sky130_fd_pr__pfet_01v8 l=0.150 nf=1 w=1.120

  X9 a_27_74# A Y VNB sky130_fd_pr__nfet_01v8_lvt l=0.150 nf=1 w=0.740

  X10 Y A VPWR VPB sky130_fd_pr__pfet_01v8 l=0.150 nf=1 w=1.120

  X11 a_27_74# B VGND VNB sky130_fd_pr__nfet_01v8_lvt l=0.150 nf=1 w=0.740


.ENDS sky130_fd_sc_hs__nand2_4

.SUBCKT sramgen_svt_inv_2 A VGND VNB VPB VPWR Y

  X0 Y A VPWR VPB sky130_fd_pr__pfet_01v8 l=0.150 nf=1 w=1.120

  X1 VPWR A Y VPB sky130_fd_pr__pfet_01v8 l=0.150 nf=1 w=1.120

  X2 VGND A Y VNB sky130_fd_pr__nfet_01v8 l=0.150 nf=1 w=0.740

  X3 Y A VGND VNB sky130_fd_pr__nfet_01v8 l=0.150 nf=1 w=0.740


.ENDS sramgen_svt_inv_2

.SUBCKT sramgen_svt_inv_2_wrapper A VGND VNB VPB VPWR Y

  X0 A VGND VNB VPB VPWR Y sramgen_svt_inv_2

.ENDS sramgen_svt_inv_2_wrapper

.SUBCKT multi_finger_inv_1 vdd vss a y

  XMP0 y a vdd vdd mos_w700_l150_m1_nf1_id1
  XMP1 y a vdd vdd mos_w700_l150_m1_nf1_id1
  XMP2 y a vdd vdd mos_w700_l150_m1_nf1_id1
  XMP3 y a vdd vdd mos_w700_l150_m1_nf1_id1
  XMP4 y a vdd vdd mos_w700_l150_m1_nf1_id1
  XMP5 y a vdd vdd mos_w700_l150_m1_nf1_id1
  XMP6 y a vdd vdd mos_w700_l150_m1_nf1_id1
  XMN0 y a vss vss mos_w700_l150_m1_nf1_id0
  XMN1 y a vss vss mos_w700_l150_m1_nf1_id0
  XMN2 y a vss vss mos_w700_l150_m1_nf1_id0

.ENDS multi_finger_inv_1

.SUBCKT multi_finger_inv_5 vdd vss a y

  XMP0 y a vdd vdd mos_w700_l150_m1_nf1_id1
  XMP1 y a vdd vdd mos_w700_l150_m1_nf1_id1
  XMP2 y a vdd vdd mos_w700_l150_m1_nf1_id1
  XMP3 y a vdd vdd mos_w700_l150_m1_nf1_id1
  XMP4 y a vdd vdd mos_w700_l150_m1_nf1_id1
  XMP5 y a vdd vdd mos_w700_l150_m1_nf1_id1
  XMP6 y a vdd vdd mos_w700_l150_m1_nf1_id1
  XMP7 y a vdd vdd mos_w700_l150_m1_nf1_id1
  XMN0 y a vss vss mos_w700_l150_m1_nf1_id0
  XMN1 y a vss vss mos_w700_l150_m1_nf1_id0
  XMN2 y a vss vss mos_w700_l150_m1_nf1_id0

.ENDS multi_finger_inv_5

.SUBCKT decoder_stage_4 vdd vss y y_b predecode_0_0

  Xgate_0_0_0 vdd vss predecode_0_0 y_b folded_inv
  Xgate_1_0_0 vdd vss y_b y multi_finger_inv_5
  Xgate_1_0_1 vdd vss y_b y multi_finger_inv_5

.ENDS decoder_stage_4

.SUBCKT sram_sp_cell_replica BL BR VSS VDD VPB VNB WL

  X0 VDD WL BR VNB sky130_fd_pr__special_nfet_pass l=0.150 nf=1 w=0.140

  X1 Q VDD VSS VNB sky130_fd_pr__special_nfet_latch l=0.150 nf=1 w=0.210

  X2 BL WL Q VNB sky130_fd_pr__special_nfet_pass l=0.150 nf=1 w=0.140

  X3 Q WL Q VPB sky130_fd_pr__special_pfet_pass l=0.025 nf=1 w=0.140

  X4 VDD WL VDD VPB sky130_fd_pr__special_pfet_pass l=0.025 nf=1 w=0.140

  X5 VDD Q VDD VPB sky130_fd_pr__special_pfet_pass l=0.150 nf=1 w=0.140

  X6 Q VDD VDD VPB sky130_fd_pr__special_pfet_pass l=0.150 nf=1 w=0.140

  X7 VSS Q VDD VNB sky130_fd_pr__special_nfet_latch l=0.150 nf=1 w=0.210


.ENDS sram_sp_cell_replica

.SUBCKT sram_sp_cell_replica_wrapper BL BR VSS VDD VPB VNB WL

  X0 BL BR VSS VDD VPB VNB WL sram_sp_cell_replica

.ENDS sram_sp_cell_replica_wrapper

.SUBCKT multi_finger_inv_8 vdd vss a y

  XMP0 y a vdd vdd mos_w700_l150_m1_nf1_id1
  XMP1 y a vdd vdd mos_w700_l150_m1_nf1_id1
  XMP2 y a vdd vdd mos_w700_l150_m1_nf1_id1
  XMP3 y a vdd vdd mos_w700_l150_m1_nf1_id1
  XMP4 y a vdd vdd mos_w700_l150_m1_nf1_id1
  XMP5 y a vdd vdd mos_w700_l150_m1_nf1_id1
  XMP6 y a vdd vdd mos_w700_l150_m1_nf1_id1
  XMP7 y a vdd vdd mos_w700_l150_m1_nf1_id1
  XMN0 y a vss vss mos_w700_l150_m1_nf1_id0
  XMN1 y a vss vss mos_w700_l150_m1_nf1_id0
  XMN2 y a vss vss mos_w700_l150_m1_nf1_id0

.ENDS multi_finger_inv_8

.SUBCKT mos_w600_l150_m1_nf1_id0 d g s b

  X0 d g s b sky130_fd_pr__nfet_01v8 l=0.150 nf=1 w=0.600


.ENDS mos_w600_l150_m1_nf1_id0

.SUBCKT multi_finger_inv_10 vdd vss a y

  XMP0 y a vdd vdd mos_w700_l150_m1_nf1_id1
  XMP1 y a vdd vdd mos_w700_l150_m1_nf1_id1
  XMP2 y a vdd vdd mos_w700_l150_m1_nf1_id1
  XMP3 y a vdd vdd mos_w700_l150_m1_nf1_id1
  XMP4 y a vdd vdd mos_w700_l150_m1_nf1_id1
  XMP5 y a vdd vdd mos_w700_l150_m1_nf1_id1
  XMP6 y a vdd vdd mos_w700_l150_m1_nf1_id1
  XMP7 y a vdd vdd mos_w700_l150_m1_nf1_id1
  XMP8 y a vdd vdd mos_w700_l150_m1_nf1_id1