* Substrate SPICE library
* This is a generated file. Be careful when editing manually: this file may be overwritten.


.SUBCKT mos_w1250_l150_m1_nf1_id1 d g s b

  X0 d g s b sky130_fd_pr__pfet_01v8 l=0.150 nf=1 w=1.250


.ENDS mos_w1250_l150_m1_nf1_id1

.SUBCKT mos_w500_l150_m1_nf1_id0 d g s b

  X0 d g s b sky130_fd_pr__nfet_01v8 l=0.150 nf=1 w=0.500


.ENDS mos_w500_l150_m1_nf1_id0

.SUBCKT folded_inv vdd vss a y

  XMP0 y a vdd vdd mos_w1250_l150_m1_nf1_id1
  XMN0 y a vss vss mos_w500_l150_m1_nf1_id0
  XMP1 y a vdd vdd mos_w1250_l150_m1_nf1_id1
  XMN1 y a vss vss mos_w500_l150_m1_nf1_id0

.ENDS folded_inv

.SUBCKT mos_w700_l150_m1_nf1_id1 d g s b

  X0 d g s b sky130_fd_pr__pfet_01v8 l=0.150 nf=1 w=0.700


.ENDS mos_w700_l150_m1_nf1_id1

.SUBCKT mos_w700_l150_m1_nf1_id0 d g s b

  X0 d g s b sky130_fd_pr__nfet_01v8 l=0.150 nf=1 w=0.700


.ENDS mos_w700_l150_m1_nf1_id0

.SUBCKT multi_finger_inv vdd vss a y

  XMP0 y a vdd vdd mos_w700_l150_m1_nf1_id1
  XMP1 y a vdd vdd mos_w700_l150_m1_nf1_id1
  XMP2 y a vdd vdd mos_w700_l150_m1_nf1_id1
  XMP3 y a vdd vdd mos_w700_l150_m1_nf1_id1
  XMP4 y a vdd vdd mos_w700_l150_m1_nf1_id1
  XMP5 y a vdd vdd mos_w700_l150_m1_nf1_id1
  XMP6 y a vdd vdd mos_w700_l150_m1_nf1_id1
  XMN0 y a vss vss mos_w700_l150_m1_nf1_id0
  XMN1 y a vss vss mos_w700_l150_m1_nf1_id0
  XMN2 y a vss vss mos_w700_l150_m1_nf1_id0

.ENDS multi_finger_inv

.SUBCKT multi_finger_inv_1 vdd vss a y

  XMP0 y a vdd vdd mos_w700_l150_m1_nf1_id1
  XMP1 y a vdd vdd mos_w700_l150_m1_nf1_id1
  XMP2 y a vdd vdd mos_w700_l150_m1_nf1_id1
  XMP3 y a vdd vdd mos_w700_l150_m1_nf1_id1
  XMP4 y a vdd vdd mos_w700_l150_m1_nf1_id1
  XMP5 y a vdd vdd mos_w700_l150_m1_nf1_id1
  XMP6 y a vdd vdd mos_w700_l150_m1_nf1_id1
  XMP7 y a vdd vdd mos_w700_l150_m1_nf1_id1
  XMN0 y a vss vss mos_w700_l150_m1_nf1_id0
  XMN1 y a vss vss mos_w700_l150_m1_nf1_id0
  XMN2 y a vss vss mos_w700_l150_m1_nf1_id0

.ENDS multi_finger_inv_1

.SUBCKT multi_finger_inv_2 vdd vss a y

  XMP0 y a vdd vdd mos_w700_l150_m1_nf1_id1
  XMP1 y a vdd vdd mos_w700_l150_m1_nf1_id1
  XMP2 y a vdd vdd mos_w700_l150_m1_nf1_id1
  XMP3 y a vdd vdd mos_w700_l150_m1_nf1_id1
  XMP4 y a vdd vdd mos_w700_l150_m1_nf1_id1
  XMP5 y a vdd vdd mos_w700_l150_m1_nf1_id1
  XMP6 y a vdd vdd mos_w700_l150_m1_nf1_id1
  XMP7 y a vdd vdd mos_w700_l150_m1_nf1_id1
  XMP8 y a vdd vdd mos_w700_l150_m1_nf1_id1
  XMP9 y a vdd vdd mos_w700_l150_m1_nf1_id1
  XMP10 y a vdd vdd mos_w700_l150_m1_nf1_id1
  XMP11 y a vdd vdd mos_w700_l150_m1_nf1_id1
  XMP12 y a vdd vdd mos_w700_l150_m1_nf1_id1
  XMP13 y a vdd vdd mos_w700_l150_m1_nf1_id1
  XMP14 y a vdd vdd mos_w700_l150_m1_nf1_id1
  XMP15 y a vdd vdd mos_w700_l150_m1_nf1_id1
  XMP16 y a vdd vdd mos_w700_l150_m1_nf1_id1
  XMP17 y a vdd vdd mos_w700_l150_m1_nf1_id1
  XMP18 y a vdd vdd mos_w700_l150_m1_nf1_id1
  XMP19 y a vdd vdd mos_w700_l150_m1_nf1_id1
  XMP20 y a vdd vdd mos_w700_l150_m1_nf1_id1
  XMP21 y a vdd vdd mos_w700_l150_m1_nf1_id1
  XMP22 y a vdd vdd mos_w700_l150_m1_nf1_id1
  XMP23 y a vdd vdd mos_w700_l150_m1_nf1_id1
  XMP24 y a vdd vdd mos_w700_l150_m1_nf1_id1
  XMP25 y a vdd vdd mos_w700_l150_m1_nf1_id1
  XMP26 y a vdd vdd mos_w700_l150_m1_nf1_id1
  XMP27 y a vdd vdd mos_w700_l150_m1_nf1_id1
  XMP28 y a vdd vdd mos_w700_l150_m1_nf1_id1
  XMN0 y a vss vss mos_w700_l150_m1_nf1_id0
  XMN1 y a vss vss mos_w700_l150_m1_nf1_id0
  XMN2 y a vss vss mos_w700_l150_m1_nf1_id0
  XMN3 y a vss vss mos_w700_l150_m1_nf1_id0
  XMN4 y a vss vss mos_w700_l150_m1_nf1_id0
  XMN5 y a vss vss mos_w700_l150_m1_nf1_id0
  XMN6 y a vss vss mos_w700_l150_m1_nf1_id0
  XMN7 y a vss vss mos_w700_l150_m1_nf1_id0
  XMN8 y a vss vss mos_w700_l150_m1_nf1_id0
  XMN9 y a vss vss mos_w700_l150_m1_nf1_id0
  XMN10 y a vss vss mos_w700_l150_m1_nf1_id0

.ENDS multi_finger_inv_2

.SUBCKT decoder_stage_1 vdd vss y y_b predecode_0_0

  Xgate_0_0_0 vdd vss predecode_0_0 x_0 folded_inv
  Xgate_1_0_0 vdd vss x_0 x_1 multi_finger_inv
  Xgate_1_0_1 vdd vss x_0 x_1 multi_finger_inv
  Xgate_2_0_0 vdd vss x_1 y_b multi_finger_inv_1
  Xgate_2_0_1 vdd vss x_1 y_b multi_finger_inv_1
  Xgate_2_0_2 vdd vss x_1 y_b multi_finger_inv_1
  Xgate_2_0_3 vdd vss x_1 y_b multi_finger_inv_1
  Xgate_2_0_4 vdd vss x_1 y_b multi_finger_inv_1
  Xgate_2_0_5 vdd vss x_1 y_b multi_finger_inv_1
  Xgate_3_0_0 vdd vss y_b y multi_finger_inv_2
  Xgate_3_0_1 vdd vss y_b y multi_finger_inv_2
  Xgate_3_0_2 vdd vss y_b y multi_finger_inv_2
  Xgate_3_0_3 vdd vss y_b y multi_finger_inv_2
  Xgate_3_0_4 vdd vss y_b y multi_finger_inv_2
  Xgate_3_0_5 vdd vss y_b y multi_finger_inv_2

.ENDS decoder_stage_1

.SUBCKT sram_sp_cell_replica BL BR VSS VDD VPB VNB WL

  X0 VDD WL BR VNB sky130_fd_pr__special_nfet_pass l=0.150 nf=1 w=0.140

  X1 Q VDD VSS VNB sky130_fd_pr__special_nfet_latch l=0.150 nf=1 w=0.210

  X2 BL WL Q VNB sky130_fd_pr__special_nfet_pass l=0.150 nf=1 w=0.140

  X3 Q WL Q VPB sky130_fd_pr__special_pfet_pass l=0.025 nf=1 w=0.140

  X4 VDD WL VDD VPB sky130_fd_pr__special_pfet_pass l=0.025 nf=1 w=0.140

  X5 VDD Q VDD VPB sky130_fd_pr__special_pfet_pass l=0.150 nf=1 w=0.140

  X6 Q VDD VDD VPB sky130_fd_pr__special_pfet_pass l=0.150 nf=1 w=0.140

  X7 VSS Q VDD VNB sky130_fd_pr__special_nfet_latch l=0.150 nf=1 w=0.210


.ENDS sram_sp_cell_replica

.SUBCKT sram_sp_cell_replica_wrapper BL BR VSS VDD VPB VNB WL

  X0 BL BR VSS VDD VPB VNB WL sram_sp_cell_replica

.ENDS sram_sp_cell_replica_wrapper

.SUBCKT sram_sp_colend BR VDD VSS BL VNB VPB

  X0 BR VNB BR VNB sky130_fd_pr__special_nfet_pass l=0.140 nf=1 w=0.140


.ENDS sram_sp_colend

.SUBCKT sram_sp_colend_wrapper BR VDD VSS BL VNB VPB

  X0 BR VDD VSS BL VNB VPB sram_sp_colend

.ENDS sram_sp_colend_wrapper

.SUBCKT sram_sp_rowtapend_replica VSS VNB

  X0 VSS VSS VSS VNB sky130_fd_pr__nfet_01v8 l=0.150 nf=1 w=0.420


.ENDS sram_sp_rowtapend_replica

.SUBCKT sram_sp_rowtapend_replica_wrapper VSS VNB

  X0 VSS VNB sram_sp_rowtapend_replica

.ENDS sram_sp_rowtapend_replica_wrapper

.SUBCKT sram_sp_hstrap BR VDD VSS BL VNB VPB

  X0 BL VNB BL VNB sky130_fd_pr__special_nfet_pass l=0.140 nf=1 w=0.140

  X1 BL VNB BL VNB sky130_fd_pr__special_nfet_pass l=0.140 nf=1 w=0.140


.ENDS sram_sp_hstrap

.SUBCKT sram_sp_hstrap_wrapper BR VDD VSS BL VNB VPB

  X0 BR VDD VSS BL VNB VPB sram_sp_hstrap

.ENDS sram_sp_hstrap_wrapper

.SUBCKT replica_cell_array vdd vss rbl rbr rwl

  Xcell_0_0 rbl rbr vss vdd vdd vss rwl sram_sp_cell_replica_wrapper
  Xcell_0_1 rbl rbr vss vdd vdd vss rwl sram_sp_cell_replica_wrapper
  Xcell_1_0 rbl rbr vss vdd vdd vss vss sram_sp_cell_replica_wrapper
  Xcell_1_1 rbl rbr vss vdd vdd vss vss sram_sp_cell_replica_wrapper
  Xcell_2_0 rbl rbr vss vdd vdd vss vss sram_sp_cell_replica_wrapper
  Xcell_2_1 rbl rbr vss vdd vdd vss vss sram_sp_cell_replica_wrapper
  Xcell_3_0 rbl rbr vss vdd vdd vss vss sram_sp_cell_replica_wrapper
  Xcell_3_1 rbl rbr vss vdd vdd vss vss sram_sp_cell_replica_wrapper
  Xcell_4_0 rbl rbr vss vdd vdd vss vss sram_sp_cell_replica_wrapper
  Xcell_4_1 rbl rbr vss vdd vdd vss vss sram_sp_cell_replica_wrapper
  Xcell_5_0 rbl rbr vss vdd vdd vss vss sram_sp_cell_replica_wrapper
  Xcell_5_1 rbl rbr vss vdd vdd vss vss sram_sp_cell_replica_wrapper
  Xcell_6_0 rbl rbr vss vdd vdd vss vss sram_sp_cell_replica_wrapper
  Xcell_6_1 rbl rbr vss vdd vdd vss vss sram_sp_cell_replica_wrapper
  Xcell_7_0 rbl rbr vss vdd vdd vss vss sram_sp_cell_replica_wrapper
  Xcell_7_1 rbl rbr vss vdd vdd vss vss sram_sp_cell_replica_wrapper
  Xcell_8_0 rbl rbr vss vdd vdd vss vss sram_sp_cell_replica_wrapper
  Xcell_8_1 rbl rbr vss vdd vdd vss vss sram_sp_cell_replica_wrapper
  Xcell_9_0 rbl rbr vss vdd vdd vss vss sram_sp_cell_replica_wrapper
  Xcell_9_1 rbl rbr vss vdd vdd vss vss sram_sp_cell_replica_wrapper
  Xcell_10_0 rbl rbr vss vdd vdd vss vss sram_sp_cell_replica_wrapper
  Xcell_10_1 rbl rbr vss vdd vdd vss vss sram_sp_cell_replica_wrapper
  Xcell_11_0 rbl rbr vss vdd vdd vss vss sram_sp_cell_replica_wrapper
  Xcell_11_1 rbl rbr vss vdd vdd vss vss sram_sp_cell_replica_wrapper
  Xcell_12_0 rbl rbr vss vdd vdd vss vss sram_sp_cell_replica_wrapper
  Xcell_12_1 rbl rbr vss vdd vdd vss vss sram_sp_cell_replica_wrapper
  Xcell_13_0 rbl rbr vss vdd vdd vss vss sram_sp_cell_replica_wrapper
  Xcell_13_1 rbl rbr vss vdd vdd vss vss sram_sp_cell_replica_wrapper
  Xcolend_0_0 rbr vdd vss rbl vss vdd sram_sp_colend_wrapper
  Xcolend_1_0 rbr vdd vss rbl vss vdd sram_sp_colend_wrapper
  Xcolend_0_1 rbr vdd vss rbl vss vdd sram_sp_colend_wrapper
  Xcolend_1_1 rbr vdd vss rbl vss vdd sram_sp_colend_wrapper
  Xrowtapend_0_0 vss vss sram_sp_rowtapend_replica_wrapper
  Xrowtapend_0_1 vss vss sram_sp_rowtapend_replica_wrapper
  Xhstrap_0_0 rbr vdd vss rbl vss vdd sram_sp_hstrap_wrapper
  Xhstrap_0_1 rbr vdd vss rbl vss vdd sram_sp_hstrap_wrapper
  Xrowtapend_1_0 vss vss sram_sp_rowtapend_replica_wrapper
  Xrowtapend_1_1 vss vss sram_sp_rowtapend_replica_wrapper
  Xhstrap_1_0 rbr vdd vss rbl vss vdd sram_sp_hstrap_wrapper
  Xhstrap_1_1 rbr vdd vss rbl vss vdd sram_sp_hstrap_wrapper
  Xrowtapend_2_0 vss vss sram_sp_rowtapend_replica_wrapper
  Xrowtapend_2_1 vss vss sram_sp_rowtapend_replica_wrapper
  Xhstrap_2_0 rbr vdd vss rbl vss vdd sram_sp_hstrap_wrapper
  Xhstrap_2_1 rbr vdd vss rbl vss vdd sram_sp_hstrap_wrapper
  Xrowtapend_3_0 vss vss sram_sp_rowtapend_replica_wrapper
  Xrowtapend_3_1 vss vss sram_sp_rowtapend_replica_wrapper
  Xhstrap_3_0 rbr vdd vss rbl vss vdd sram_sp_hstrap_wrapper
  Xhstrap_3_1 rbr vdd vss rbl vss vdd sram_sp_hstrap_wrapper

.ENDS replica_cell_array

.SUBCKT sram_sp_horiz_wlstrap_p2 VSS VNB

  X0 VSS VSS VSS VNB sky130_fd_pr__nfet_01v8 l=0.150 nf=1 w=0.420


.ENDS sram_sp_horiz_wlstrap_p2

.SUBCKT multi_finger_inv_7 vdd vss a y

  XMP0 y a vdd vdd mos_w700_l150_m1_nf1_id1
  XMP1 y a vdd vdd mos_w700_l150_m1_nf1_id1
  XMP2 y a vdd vdd mos_w700_l150_m1_nf1_id1
  XMP3 y a vdd vdd mos_w700_l150_m1_nf1_id1
  XMP4 y a vdd vdd mos_w700_l150_m1_nf1_id1
  XMP5 y a vdd vdd mos_w700_l150_m1_nf1_id1
  XMP6 y a vdd vdd mos_w700_l150_m1_nf1_id1
  XMP7 y a vdd vdd mos_w700_l150_m1_nf1_id1
  XMP8 y a vdd vdd mos_w700_l150_m1_nf1_id1
  XMP9 y a vdd vdd mos_w700_l150_m1_nf1_id1
  XMP10 y a vdd vdd mos_w700_l150_m1_nf1_id1
  XMP11 y a vdd vdd mos_w700_l150_m1_nf1_id1
  XMP12 y a vdd vdd mos_w700_l150_m1_nf1_id1
  XMP13 y a vdd vdd mos_w700_l150_m1_nf1_id1
  XMP14 y a vdd vdd mos_w700_l150_m1_nf1_id1
  XMP15 y a vdd vdd mos_w700_l150_m1_nf1_id1
  XMP16 y a vdd vdd mos_w700_l150_m1_nf1_id1
  XMP17 y a vdd vdd mos_w700_l150_m1_nf1_id1
  XMP18 y a vdd vdd mos_w700_l150_m1_nf1_id1
  XMP19 y a vdd vdd mos_w700_l150_m1_nf1_id1
  XMP20 y a vdd vdd mos_w700_l150_m1_nf1_id1
  XMP21 y a vdd vdd mos_w700_l150_m1_nf1_id1
  XMP22 y a vdd vdd mos_w700_l150_m1_nf1_id1
  XMP23 y a vdd vdd mos_w700_l150_m1_nf1_id1
  XMP24 y a vdd vdd mos_w700_l150_m1_nf1_id1
  XMP25 y a vdd vdd mos_w700_l150_m1_nf1_id1
  XMN0 y a vss vss mos_w700_l150_m1_nf1_id0
  XMN1 y a vss vss mos_w700_l150_m1_nf1_id0
  XMN2 y a vss vss mos_w700_l150_m1_nf1_id0
  XMN3 y a vss vss mos_w700_l150_m1_nf1_id0
  XMN4 y a vss vss mos_w700_l150_m1_nf1_id0
  XMN5 y a vss vss mos_w700_l150_m1_nf1_id0
  XMN6 y a vss vss mos_w700_l150_m1_nf1_id0
  XMN7 y a vss vss mos_w700_l150_m1_nf1_id0
  XMN8 y a vss vss mos_w700_l150_m1_nf1_id0
  XMN9 y a vss vss mos_w700_l150_m1_nf1_id0

.ENDS multi_finger_inv_7

.SUBCKT mos_w3800_l150_m1_nf1_id1 d g s b

  X0 d g s b sky130_fd_pr__pfet_01v8 l=0.150 nf=1 w=3.800


.ENDS mos_w3800_l150_m1_nf1_id1

.SUBCKT mos_w1530_l150_m1_nf1_id0 d g s b

  X0 d g s b sky130_fd_pr__nfet_01v8 l=0.150 nf=1 w=1.530


.ENDS mos_w1530_l150_m1_nf1_id0

.SUBCKT folded_inv_4 vdd vss a y

  XMP0 y a vdd vdd mos_w3800_l150_m1_nf1_id1
  XMN0 y a vss vss mos_w1530_l150_m1_nf1_id0
  XMP1 y a vdd vdd mos_w3800_l150_m1_nf1_id1
  XMN1 y a vss vss mos_w1530_l150_m1_nf1_id0

.ENDS folded_inv_4

.SUBCKT sky130_fd_sc_hs__nor2_4 A B VGND VNB VPB VPWR Y

  X0 a_27_368# A VPWR VPB sky130_fd_pr__pfet_01v8 l=0.150 nf=1 w=1.120

  X1 a_27_368# B Y VPB sky130_fd_pr__pfet_01v8 l=0.150 nf=1 w=1.120

  X2 VGND B Y VNB sky130_fd_pr__nfet_01v8_lvt l=0.150 nf=1 w=0.740

  X3 a_27_368# A VPWR VPB sky130_fd_pr__pfet_01v8 l=0.150 nf=1 w=1.120

  X4 Y B a_27_368# VPB sky130_fd_pr__pfet_01v8 l=0.150 nf=1 w=1.120

  X5 a_27_368# B Y VPB sky130_fd_pr__pfet_01v8 l=0.150 nf=1 w=1.120

  X6 VGND A Y VNB sky130_fd_pr__nfet_01v8_lvt l=0.150 nf=1 w=0.740

  X7 VPWR A a_27_368# VPB sky130_fd_pr__pfet_01v8 l=0.150 nf=1 w=1.120

  X8 VPWR A a_27_368# VPB sky130_fd_pr__pfet_01v8 l=0.150 nf=1 w=1.120

  X9 Y A VGND VNB sky130_fd_pr__nfet_01v8_lvt l=0.150 nf=1 w=0.740

  X10 Y B VGND VNB sky130_fd_pr__nfet_01v8_lvt l=0.150 nf=1 w=0.740

  X11 Y B a_27_368# VPB sky130_fd_pr__pfet_01v8 l=0.150 nf=1 w=1.120


.ENDS sky130_fd_sc_hs__nor2_4

.SUBCKT mos_w3000_l150_m1_nf1_id0 d g s b

  X0 d g s b sky130_fd_pr__nfet_01v8 l=0.150 nf=1 w=3.000


.ENDS mos_w3000_l150_m1_nf1_id0

.SUBCKT mos_w2500_l150_m1_nf1_id1 d g s b

  X0 d g s b sky130_fd_pr__pfet_01v8 l=0.150 nf=1 w=2.500


.ENDS mos_w2500_l150_m1_nf1_id1

.SUBCKT nand3 vdd vss a b c y

  Xn1 x1 a vss vss mos_w3000_l150_m1_nf1_id0
  Xn2 x2 b x1 vss mos_w3000_l150_m1_nf1_id0
  Xn3 y c x2 vss mos_w3000_l150_m1_nf1_id0
  Xp1 y a vdd vdd mos_w2500_l150_m1_nf1_id1
  Xp2 y b vdd vdd mos_w2500_l150_m1_nf1_id1
  Xp3 y c vdd vdd mos_w2500_l150_m1_nf1_id1

.ENDS nand3

.SUBCKT decoder_stage_8 vdd vss y[0] y[1] y[2] y[3] y[4] y[5] y[6] y[7] y_b[0] y_b[1] y_b[2] y_b[3] y_b[4] y_b[5] y_b[6] y_b[7] predecode_0_0 predecode_0_1 predecode_1_0 predecode_1_1 predecode_2_0 predecode_2_1

  Xgate_0_0_0 vdd vss predecode_0_0 predecode_1_0 predecode_2_0 y_b[0] nand3
  Xgate_0_1_0 vdd vss predecode_0_1 predecode_1_0 predecode_2_0 y_b[1] nand3
  Xgate_0_2_0 vdd vss predecode_0_0 predecode_1_1 predecode_2_0 y_b[2] nand3
  Xgate_0_3_0 vdd vss predecode_0_1 predecode_1_1 predecode_2_0 y_b[3] nand3
  Xgate_0_4_0 vdd vss predecode_0_0 predecode_1_0 predecode_2_1 y_b[4] nand3
  Xgate_0_5_0 vdd vss predecode_0_1 predecode_1_0 predecode_2_1 y_b[5] nand3
  Xgate_0_6_0 vdd vss predecode_0_0 predecode_1_1 predecode_2_1 y_b[6] nand3
  Xgate_0_7_0 vdd vss predecode_0_1 predecode_1_1 predecode_2_1 y_b[7] nand3
  Xgate_1_0_0 vdd vss y_b[0] y[0] folded_inv_4
  Xgate_1_1_0 vdd vss y_b[1] y[1] folded_inv_4
  Xgate_1_2_0 vdd vss y_b[2] y[2] folded_inv_4
  Xgate_1_3_0 vdd vss y_b[3] y[3] folded_inv_4
  Xgate_1_4_0 vdd vss y_b[4] y[4] folded_inv_4
  Xgate_1_5_0 vdd vss y_b[5] y[5] folded_inv_4
  Xgate_1_6_0 vdd vss y_b[6] y[6] folded_inv_4
  Xgate_1_7_0 vdd vss y_b[7] y[7] folded_inv_4

.ENDS decoder_stage_8

.SUBCKT decoder_2 vdd vss y[0] y[1] y[2] y[3] y[4] y[5] y[6] y[7] y_b[0] y_b[1] y_b[2] y_b[3] y_b[4] y_b[5] y_b[6] y_b[7] predecode_0_0 predecode_0_1 predecode_1_0 predecode_1_1 predecode_2_0 predecode_2_1

  X0 vdd vss y[0] y[1] y[2] y[3] y[4] y[5] y[6] y[7] y_b[0] y_b[1] y_b[2] y_b[3] y_b[4] y_b[5] y_b[6] y_b[7] predecode_0_0 predecode_0_1 predecode_1_0 predecode_1_1 predecode_2_0 predecode_2_1 decoder_stage_8

.ENDS decoder_2

.SUBCKT mos_w2000_l150_m1_nf1_id0 d g s b

  X0 d g s b sky130_fd_pr__nfet_01v8 l=0.150 nf=1 w=2.000


.ENDS mos_w2000_l150_m1_nf1_id0

.SUBCKT nand2 vdd vss a b y

  Xn1 x a vss vss mos_w2000_l150_m1_nf1_id0
  Xn2 y b x vss mos_w2000_l150_m1_nf1_id0
  Xp1 y a vdd vdd mos_w2500_l150_m1_nf1_id1
  Xp2 y b vdd vdd mos_w2500_l150_m1_nf1_id1

.ENDS nand2

.SUBCKT mos_w2350_l150_m1_nf1_id1 d g s b

  X0 d g s b sky130_fd_pr__pfet_01v8 l=0.150 nf=1 w=2.350


.ENDS mos_w2350_l150_m1_nf1_id1

.SUBCKT mos_w950_l150_m1_nf1_id0 d g s b

  X0 d g s b sky130_fd_pr__nfet_01v8 l=0.150 nf=1 w=0.950


.ENDS mos_w950_l150_m1_nf1_id0

.SUBCKT folded_inv_5 vdd vss a y

  XMP0 y a vdd vdd mos_w2350_l150_m1_nf1_id1
  XMN0 y a vss vss mos_w950_l150_m1_nf1_id0
  XMP1 y a vdd vdd mos_w2350_l150_m1_nf1_id1
  XMN1 y a vss vss mos_w950_l150_m1_nf1_id0

.ENDS folded_inv_5

.SUBCKT and2_1 vdd a b y yb vss

  X0 vdd vss a b yb nand2
  X0_1 vdd vss yb y folded_inv_5

.ENDS and2_1

.SUBCKT multi_finger_inv_8 vdd vss a y

  XMP0 y a vdd vdd mos_w700_l150_m1_nf1_id1
  XMP1 y a vdd vdd mos_w700_l150_m1_nf1_id1
  XMP2 y a vdd vdd mos_w700_l150_m1_nf1_id1
  XMP3 y a vdd vdd mos_w700_l150_m1_nf1_id1
  XMP4 y a vdd vdd mos_w700_l150_m1_nf1_id1
  XMP5 y a vdd vdd mos_w700_l150_m1_nf1_id1
  XMP6 y a vdd vdd mos_w700_l150_m1_nf1_id1
  XMP7 y a vdd vdd mos_w700_l150_m1_nf1_id1
  XMP8 y a vdd vdd mos_w700_l150_m1_nf1_id1
  XMP9 y a vdd vdd mos_w700_l150_m1_nf1_id1
  XMP10 y a vdd vdd mos_w700_l150_m1_nf1_id1
  XMP11 y a vdd vdd mos_w700_l150_m1_nf1_id1
  XMP12 y a vdd vdd mos_w700_l150_m1_nf1_id1
  XMN0 y a vss vss mos_w700_l150_m1_nf1_id0
  XMN1 y a vss vss mos_w700_l150_m1_nf1_id0
  XMN2 y a vss vss mos_w700_l150_m1_nf1_id0
  XMN3 y a vss vss mos_w700_l150_m1_nf1_id0
  XMN4 y a vss vss mos_w700_l150_m1_nf1_id0

.ENDS multi_finger_inv_8

.SUBCKT multi_finger_inv_9 vdd vss a y

  XMP0 y a vdd vdd mos_w700_l150_m1_nf1_id1
  XMP1 y a vdd vdd mos_w700_l150_m1_nf1_id1
  XMP2 y a vdd vdd mos_w700_l150_m1_nf1_id1
  XMP3 y a vdd vdd mos_w700_l150_m1_nf1_id1
  XMP4 y a vdd vdd mos_w700_l150_m1_nf1_id1
  XMP5 y a vdd vdd mos_w700_l150_m1_nf1_id1
  XMP6 y a vdd vdd mos_w700_l150_m1_nf1_id1
  XMP7 y a vdd vdd mos_w700_l150_m1_nf1_id1
  XMP8 y a vdd vdd mos_w700_l150_m1_nf1_id1
  XMP9 y a vdd vdd mos_w700_l150_m1_nf1_id1
  XMP10 y a vdd vdd mos_w700_l150_m1_nf1_id1
  XMP11 y a vdd vdd mos_w700_l150_m1_nf1_id1
  XMP12 y a vdd vdd mos_w700_l150_m1_nf1_id1
  XMP13 y a vdd vdd mos_w700_l150_m1_nf1_id1
  XMP14 y a vdd vdd mos_w700_l150_m1_nf1_id1
  XMP15 y a vdd vdd mos_w700_l150_m1_nf1_id1
  XMP16 y a vdd vdd mos_w700_l150_m1_nf1_id1
  XMP17 y a vdd vdd mos_w700_l150_m1_nf1_id1
  XMP18 y a vdd vdd mos_w700_l150_m1_nf1_id1
  XMP19 y a vdd vdd mos_w700_l150_m1_nf1_id1
  XMP20 y a vdd vdd mos_w700_l150_m1_nf1_id1
  XMP21 y a vdd vdd mos_w700_l150_m1_nf1_id1
  XMP22 y a vdd vdd mos_w700_l150_m1_nf1_id1
  XMP23 y a vdd vdd mos_w700_l150_m1_nf1_id1
  XMP24 y a vdd vdd mos_w700_l150_m1_nf1_id1
  XMP25 y a vdd vdd mos_w700_l150_m1_nf1_id1
  XMN0 y a vss vss mos_w700_l150_m1_nf1_id0
  XMN1 y a vss vss mos_w700_l150_m1_nf1_id0
  XMN2 y a vss vss mos_w700_l150_m1_nf1_id0
  XMN3 y a vss vss mos_w700_l150_m1_nf1_id0
  XMN4 y a vss vss mos_w700_l150_m1_nf1_id0
  XMN5 y a vss vss mos_w700_l150_m1_nf1_id0
  XMN6 y a vss vss mos_w700_l150_m1_nf1_id0
  XMN7 y a vss vss mos_w700_l150_m1_nf1_id0
  XMN8 y a vss vss mos_w700_l150_m1_nf1_id0
  XMN9 y a vss vss mos_w700_l150_m1_nf1_id0

.ENDS multi_finger_inv_9

.SUBCKT multi_finger_inv_10 vdd vss a y

  XMP0 y a vdd vdd mos_w700_l150_m1_nf1_id1
  XMP1 y a vdd vdd mos_w700_l150_m1_nf1_id1
  XMP2 y a vdd vdd mos_w700_l150_m1_nf1_id1
  XMP3 y a vdd vdd mos_w700_l150_m1_nf1_id1
  XMP4 y a vdd vdd mos_w700_l150_m1_nf1_id1
  XMP5 y a vdd vdd mos_w700_l150_m1_nf1_id1
  XMP6 y a vdd vdd mos_w700_l150_m1_nf1_id1
  XMP7 y a vdd vdd mos_w700_l150_m1_nf1_id1
  XMP8 y a vdd vdd mos_w700_l150_m1_nf1_id1
  XMP9 y a vdd vdd mos_w700_l150_m1_nf1_id1
  XMP10 y a vdd vdd mos_w700_l150_m1_nf1_id1
  XMP11 y a vdd vdd mos_w700_l150_m1_nf1_id1
  XMP12 y a vdd vdd mos_w700_l150_m1_nf1_id1
  XMP13 y a vdd vdd mos_w700_l150_m1_nf1_id1
  XMP14 y a vdd vdd mos_w700_l150_m1_nf1_id1
  XMP15 y a vdd vdd mos_w700_l150_m1_nf1_id1
  XMP16 y a vdd vdd mos_w700_l150_m1_nf1_id1
  XMP17 y a vdd vdd mos_w700_l150_m1_nf1_id1
  XMP18 y a vdd vdd mos_w700_l150_m1_nf1_id1
  XMP19 y a vdd vdd mos_w700_l150_m1_nf1_id1
  XMP20 y a vdd vdd mos_w700_l150_m1_nf1_id1
  XMP21 y a vdd vdd mos_w700_l150_m1_nf1_id1
  XMP22 y a vdd vdd mos_w700_l150_m1_nf1_id1
  XMP23 y a vdd vdd mos_w700_l150_m1_nf1_id1
  XMP24 y a vdd vdd mos_w700_l150_m1_nf1_id1
  XMP25 y a vdd vdd mos_w700_l150_m1_nf1_id1
  XMP26 y a vdd vdd mos_w700_l150_m1_nf1_id1
  XMP27 y a vdd vdd mos_w700_l150_m1_nf1_id1
  XMP28 y a vdd vdd mos_w700_l150_m1_nf1_id1
  XMP29 y a vdd vdd mos_w700_l150_m1_nf1_id1
  XMP30 y a vdd vdd mos_w700_l150_m1_nf1_id1
  XMP31 y a vdd vdd mos_w700_l150_m1_nf1_id1
  XMP32 y a vdd vdd mos_w700_l150_m1_nf1_id1
  XMP33 y a vdd vdd mos_w700_l150_m1_nf1_id1
  XMP34 y a vdd vdd mos_w700_l150_m1_nf1_id1
  XMP35 y a vdd vdd mos_w700_l150_m1_nf1_id1
  XMP36 y a vdd vdd mos_w700_l150_m1_nf1_id1
  XMP37 y a vdd vdd mos_w700_l150_m1_nf1_id1
  XMP38 y a vdd vdd mos_w700_l150_m1_nf1_id1
  XMP39 y a vdd vdd mos_w700_l150_m1_nf1_id1
  XMP40 y a vdd vdd mos_w700_l150_m1_nf1_id1
  XMP41 y a vdd vdd mos_w700_l150_m1_nf1_id1
  XMP42 y a vdd vdd mos_w700_l150_m1_nf1_id1
  XMP43 y a vdd vdd mos_w700_l150_m1_nf1_id1
  XMP44 y a vdd vdd mos_w700_l150_m1_nf1_id1
  XMP45 y a vdd vdd mos_w700_l150_m1_nf1_id1
  XMP46 y a vdd vdd mos_w700_l150_m1_nf1_id1
  XMP47 y a vdd vdd mos_w700_l150_m1_nf1_id1
  XMP48 y a vdd vdd mos_w700_l150_m1_nf1_id1
  XMP49 y a vdd vdd mos_w700_l150_m1_nf1_id1
  XMP50 y a vdd vdd mos_w700_l150_m1_nf1_id1
  XMN0 y a vss vss mos_w700_l150_m1_nf1_id0
  XMN1 y a vss vss mos_w700_l150_m1_nf1_id0
  XMN2 y a vss vss mos_w700_l150_m1_nf1_id0
  XMN3 y a vss vss mos_w700_l150_m1_nf1_id0
  XMN4 y a vss vss mos_w700_l150_m1_nf1_id0
  XMN5 y a vss vss mos_w700_l150_m1_nf1_id0
  XMN6 y a vss vss mos_w700_l150_m1_nf1_id0
  XMN7 y a vss vss mos_w700_l150_m1_nf1_id0
  XMN8 y a vss vss mos_w700_l150_m1_nf1_id0
  XMN9 y a vss vss mos_w700_l150_m1_nf1_id0
  XMN10 y a vss vss mos_w700_l150_m1_nf1_id0
  XMN11 y a vss vss mos_w700_l150_m1_nf1_id0
  XMN12 y a vss vss mos_w700_l150_m1_nf1_id0
  XMN13 y a vss vss mos_w700_l150_m1_nf1_id0
  XMN14 y a vss vss mos_w700_l150_m1_nf1_id0
  XMN15 y a vss vss mos_w700_l150_m1_nf1_id0
  XMN16 y a vss vss mos_w700_l150_m1_nf1_id0
  XMN17 y a vss vss mos_w700_l150_m1_nf1_id0
  XMN18 y a vss vss mos_w700_l150_m1_nf1_id0
  XMN19 y a vss vss mos_w700_l150_m1_nf1_id0

.ENDS multi_finger_inv_10

.SUBCKT multi_finger_inv_11 vdd vss a y

  XMP0 y a vdd vdd mos_w700_l150_m1_nf1_id1
  XMP1 y a vdd vdd mos_w700_l150_m1_nf1_id1
  XMP2 y a vdd vdd mos_w700_l150_m1_nf1_id1
  XMP3 y a vdd vdd mos_w700_l150_m1_nf1_id1
  XMP4 y a vdd vdd mos_w700_l150_m1_nf1_id1
  XMP5 y a vdd vdd mos_w700_l150_m1_nf1_id1
  XMP6 y a vdd vdd mos_w700_l150_m1_nf1_id1
  XMP7 y a vdd vdd mos_w700_l150_m1_nf1_id1
  XMP8 y a vdd vdd mos_w700_l150_m1_nf1_id1
  XMP9 y a vdd vdd mos_w700_l150_m1_nf1_id1
  XMP10 y a vdd vdd mos_w700_l150_m1_nf1_id1
  XMP11 y a vdd vdd mos_w700_l150_m1_nf1_id1
  XMP12 y a vdd vdd mos_w700_l150_m1_nf1_id1
  XMP13 y a vdd vdd mos_w700_l150_m1_nf1_id1
  XMP14 y a vdd vdd mos_w700_l150_m1_nf1_id1
  XMP15 y a vdd vdd mos_w700_l150_m1_nf1_id1
  XMP16 y a vdd vdd mos_w700_l150_m1_nf1_id1
  XMP17 y a vdd vdd mos_w700_l150_m1_nf1_id1
  XMP18 y a vdd vdd mos_w700_l150_m1_nf1_id1
  XMP19 y a vdd vdd mos_w700_l150_m1_nf1_id1
  XMP20 y a vdd vdd mos_w700_l150_m1_nf1_id1
  XMP21 y a vdd vdd mos_w700_l150_m1_nf1_id1
  XMP22 y a vdd vdd mos_w700_l150_m1_nf1_id1
  XMP23 y a vdd vdd mos_w700_l150_m1_nf1_id1
  XMP24 y a vdd vdd mos_w700_l150_m1_nf1_id1
  XMP25 y a vdd vdd mos_w700_l150_m1_nf1_id1
  XMP26 y a vdd vdd mos_w700_l150_m1_nf1_id1
  XMP27 y a vdd vdd mos_w700_l150_m1_nf1_id1
  XMP28 y a vdd vdd mos_w700_l150_m1_nf1_id1
  XMP29 y a vdd vdd mos_w700_l150_m1_nf1_id1
  XMP30 y a vdd vdd mos_w700_l150_m1_nf1_id1
  XMP31 y a vdd vdd mos_w700_l150_m1_nf1_id1
  XMP32 y a vdd vdd mos_w700_l150_m1_nf1_id1
  XMP33 y a vdd vdd mos_w700_l150_m1_nf1_id1
  XMP34 y a vdd vdd mos_w700_l150_m1_nf1_id1
  XMP35 y a vdd vdd mos_w700_l150_m1_nf1_id1
  XMP36 y a vdd vdd mos_w700_l150_m1_nf1_id1
  XMP37 y a vdd vdd mos_w700_l150_m1_nf1_id1
  XMP38 y a vdd vdd mos_w700_l150_m1_nf1_id1
  XMP39 y a vdd vdd mos_w700_l150_m1_nf1_id1
  XMP40 y a vdd vdd mos_w700_l150_m1_nf1_id1
  XMP41 y a vdd vdd mos_w700_l150_m1_nf1_id1
  XMP42 y a vdd vdd mos_w700_l150_m1_nf1_id1
  XMP43 y a vdd vdd mos_w700_l150_m1_nf1_id1
  XMP44 y a vdd vdd mos_w700_l150_m1_nf1_id1
  XMP45 y a vdd vdd mos_w700_l150_m1_nf1_id1
  XMP46 y a vdd vdd mos_w700_l150_m1_nf1_id1
  XMP47 y a vdd vdd mos_w700_l150_m1_nf1_id1
  XMP48 y a vdd vdd mos_w700_l150_m1_nf1_id1
  XMP49 y a vdd vdd mos_w700_l150_m1_nf1_id1
  XMP50 y a vdd vdd mos_w700_l150_m1_nf1_id1
  XMP51 y a vdd vdd mos_w700_l150_m1_nf1_id1
  XMP52 y a vdd vdd mos_w700_l150_m1_nf1_id1
  XMP53 y a vdd vdd mos_w700_l150_m1_nf1_id1
  XMP54 y a vdd vdd mos_w700_l150_m1_nf1_id1
  XMP55 y a vdd vdd mos_w700_l150_m1_nf1_id1
  XMP56 y a vdd vdd mos_w700_l150_m1_nf1_id1
  XMP57 y a vdd vdd mos_w700_l150_m1_nf1_id1
  XMP58 y a vdd vdd mos_w700_l150_m1_nf1_id1
  XMP59 y a vdd vdd mos_w700_l150_m1_nf1_id1
  XMP60 y a vdd vdd mos_w700_l150_m1_nf1_id1
  XMP61 y a vdd vdd mos_w700_l150_m1_nf1_id1
  XMP62 y a vdd vdd mos_w700_l150_m1_nf1_id1
  XMP63 y a vdd vdd mos_w700_l150_m1_nf1_id1
  XMP64 y a vdd vdd mos_w700_l150_m1_nf1_id1
  XMP65 y a vdd vdd mos_w700_l150_m1_nf1_id1
  XMP66 y a vdd vdd mos_w700_l150_m1_nf1_id1
  XMP67 y a vdd vdd mos_w700_l150_m1_nf1_id1
  XMP68 y a vdd vdd mos_w700_l150_m1_nf1_id1
  XMP69 y a vdd vdd mos_w700_l150_m1_nf1_id1
  XMP70 y a vdd vdd mos_w700_l150_m1_nf1_id1
  XMP71 y a vdd vdd mos_w700_l150_m1_nf1_id1
  XMP72 y a vdd vdd mos_w700_l150_m1_nf1_id1
  XMP73 y a vdd vdd mos_w700_l150_m1_nf1_id1
  XMP74 y a vdd vdd mos_w700_l150_m1_nf1_id1
  XMP75 y a vdd vdd mos_w700_l150_m1_nf1_id1
  XMP76 y a vdd vdd mos_w700_l150_m1_nf1_id1
  XMP77 y a vdd vdd mos_w700_l150_m1_nf1_id1
  XMP78 y a vdd vdd mos_w700_l150_m1_nf1_id1
  XMP79 y a vdd vdd mos_w700_l150_m1_nf1_id1
  XMP80 y a vdd vdd mos_w700_l150_m1_nf1_id1
  XMP81 y a vdd vdd mos_w700_l150_m1_nf1_id1
  XMP82 y a vdd vdd mos_w700_l150_m1_nf1_id1
  XMP83 y a vdd vdd mos_w700_l150_m1_nf1_id1
  XMP84 y a vdd vdd mos_w700_l150_m1_nf1_id1
  XMP85 y a vdd vdd mos_w700_l150_m1_nf1_id1
  XMP86 y a vdd vdd mos_w700_l150_m1_nf1_id1
  XMP87 y a vdd vdd mos_w700_l150_m1_nf1_id1
  XMP88 y a vdd vdd mos_w700_l150_m1_nf1_id1
  XMP89 y a vdd vdd mos_w700_l150_m1_nf1_id1
  XMP90 y a vdd vdd mos_w700_l150_m1_nf1_id1
  XMP91 y a vdd vdd mos_w700_l150_m1_nf1_id1
  XMP92 y a vdd vdd mos_w700_l150_m1_nf1_id1
  XMP93 y a vdd vdd mos_w700_l150_m1_nf1_id1
  XMP94 y a vdd vdd mos_w700_l150_m1_nf1_id1
  XMP95 y a vdd vdd mos_w700_l150_m1_nf1_id1
  XMP96 y a vdd vdd mos_w700_l150_m1_nf1_id1
  XMP97 y a vdd vdd mos_w700_l150_m1_nf1_id1
  XMP98 y a vdd vdd mos_w700_l150_m1_nf1_id1
  XMN0 y a vss vss mos_w700_l150_m1_nf1_id0
  XMN1 y a vss vss mos_w700_l150_m1_nf1_id0
  XMN2 y a vss vss mos_w700_l150_m1_nf1_id0
  XMN3 y a vss vss mos_w700_l150_m1_nf1_id0
  XMN4 y a vss vss mos_w700_l150_m1_nf1_id0
  XMN5 y a vss vss mos_w700_l150_m1_nf1_id0
  XMN6 y a vss vss mos_w700_l150_m1_nf1_id0
  XMN7 y a vss vss mos_w700_l150_m1_nf1_id0
  XMN8 y a vss vss mos_w700_l150_m1_nf1_id0
  XMN9 y a vss vss mos_w700_l150_m1_nf1_id0
  XMN10 y a vss vss mos_w700_l150_m1_nf1_id0
  XMN11 y a vss vss mos_w700_l150_m1_nf1_id0
  XMN12 y a vss vss mos_w700_l150_m1_nf1_id0
  XMN13 y a vss vss mos_w700_l150_m1_nf1_id0
  XMN14 y a vss vss mos_w700_l150_m1_nf1_id0
  XMN15 y a vss vss mos_w700_l150_m1_nf1_id0
  XMN16 y a vss vss mos_w700_l150_m1_nf1_id0
  XMN17 y a vss vss mos_w700_l150_m1_nf1_id0
  XMN18 y a vss vss mos_w700_l150_m1_nf1_id0
  XMN19 y a vss vss mos_w700_l150_m1_nf1_id0
  XMN20 y a vss vss mos_w700_l150_m1_nf1_id0
  XMN21 y a vss vss mos_w700_l150_m1_nf1_id0
  XMN22 y a vss vss mos_w700_l150_m1_nf1_id0
  XMN23 y a vss vss mos_w700_l150_m1_nf1_id0
  XMN24 y a vss vss mos_w700_l150_m1_nf1_id0
  XMN25 y a vss vss mos_w700_l150_m1_nf1_id0
  XMN26 y a vss vss mos_w700_l150_m1_nf1_id0
  XMN27 y a vss vss mos_w700_l150_m1_nf1_id0
  XMN28 y a vss vss mos_w700_l150_m1_nf1_id0
  XMN29 y a vss vss mos_w700_l150_m1_nf1_id0
  XMN30 y a vss vss mos_w700_l150_m1_nf1_id0
  XMN31 y a vss vss mos_w700_l150_m1_nf1_id0
  XMN32 y a vss vss mos_w700_l150_m1_nf1_id0
  XMN33 y a vss vss mos_w700_l150_m1_nf1_id0
  XMN34 y a vss vss mos_w700_l150_m1_nf1_id0
  XMN35 y a vss vss mos_w700_l150_m1_nf1_id0
  XMN36 y a vss vss mos_w700_l150_m1_nf1_id0
  XMN37 y a vss vss mos_w700_l150_m1_nf1_id0
  XMN38 y a vss vss mos_w700_l150_m1_nf1_id0
  XMN39 y a vss vss mos_w700_l150_m1_nf1_id0

.ENDS multi_finger_inv_11

.SUBCKT decoder_stage_5 vdd vss y[0] y[1] y[2] y[3] y[4] y[5] y[6] y[7] y[8] y[9] y[10] y[11] y[12] y[13] y[14] y[15] y[16] y[17] y[18] y[19] y[20] y[21] y[22] y[23] y[24] y[25] y[26] y[27] y[28] y[29] y[30] y[31] y[32] y[33] y[34] y[35] y[36] y[37] y[38] y[39] y[40] y[41] y[42] y[43] y[44] y[45] y[46] y[47] y[48] y[49] y[50] y[51] y[52] y[53] y[54] y[55] y[56] y[57] y[58] y[59] y[60] y[61] y[62] y[63] y_b[0] y_b[1] y_b[2] y_b[3] y_b[4] y_b[5] y_b[6] y_b[7] y_b[8] y_b[9] y_b[10] y_b[11] y_b[12] y_b[13] y_b[14] y_b[15] y_b[16] y_b[17] y_b[18] y_b[19] y_b[20] y_b[21] y_b[22] y_b[23] y_b[24] y_b[25] y_b[26] y_b[27] y_b[28] y_b[29] y_b[30] y_b[31] y_b[32] y_b[33] y_b[34] y_b[35] y_b[36] y_b[37] y_b[38] y_b[39] y_b[40] y_b[41] y_b[42] y_b[43] y_b[44] y_b[45] y_b[46] y_b[47] y_b[48] y_b[49] y_b[50] y_b[51] y_b[52] y_b[53] y_b[54] y_b[55] y_b[56] y_b[57] y_b[58] y_b[59] y_b[60] y_b[61] y_b[62] y_b[63] predecode_0_0 predecode_0_1 predecode_0_2 predecode_0_3 predecode_0_4 predecode_0_5 predecode_0_6 predecode_0_7 predecode_1_0 predecode_1_1 predecode_1_2 predecode_1_3 predecode_1_4 predecode_1_5 predecode_1_6 predecode_1_7

  Xgate_0_0_0 vdd predecode_0_0 predecode_1_0 x_0[0] y_b_noconn_0_0_0 vss and2_1
  Xgate_0_1_0 vdd predecode_0_1 predecode_1_0 x_0[1] y_b_noconn_0_1_0 vss and2_1
  Xgate_0_2_0 vdd predecode_0_2 predecode_1_0 x_0[2] y_b_noconn_0_2_0 vss and2_1
  Xgate_0_3_0 vdd predecode_0_3 predecode_1_0 x_0[3] y_b_noconn_0_3_0 vss and2_1
  Xgate_0_4_0 vdd predecode_0_4 predecode_1_0 x_0[4] y_b_noconn_0_4_0 vss and2_1
  Xgate_0_5_0 vdd predecode_0_5 predecode_1_0 x_0[5] y_b_noconn_0_5_0 vss and2_1
  Xgate_0_6_0 vdd predecode_0_6 predecode_1_0 x_0[6] y_b_noconn_0_6_0 vss and2_1
  Xgate_0_7_0 vdd predecode_0_7 predecode_1_0 x_0[7] y_b_noconn_0_7_0 vss and2_1
  Xgate_0_8_0 vdd predecode_0_0 predecode_1_1 x_0[8] y_b_noconn_0_8_0 vss and2_1
  Xgate_0_9_0 vdd predecode_0_1 predecode_1_1 x_0[9] y_b_noconn_0_9_0 vss and2_1