* Substrate SPICE library
* This is a generated file. Be careful when editing manually: this file may be overwritten.


.SUBCKT sky130_fd_sc_hs__mux2_4 A0 A1 S VGND VNB VPB VPWR X

  X0 a_27_368# S VPWR VPB sky130_fd_pr__pfet_01v8 l=0.150 nf=1 w=1.000

  X1 a_722_391# A0 a_193_241# VPB sky130_fd_pr__pfet_01v8 l=0.150 nf=1 w=1.000

  X2 a_722_391# S VPWR VPB sky130_fd_pr__pfet_01v8 l=0.150 nf=1 w=1.000

  X3 VGND a_27_368# a_937_119# VNB sky130_fd_pr__nfet_01v8_lvt l=0.150 nf=1 w=0.640

  X4 a_193_241# A1 a_936_391# VPB sky130_fd_pr__pfet_01v8 l=0.150 nf=1 w=1.000

  X5 a_709_119# S VGND VNB sky130_fd_pr__nfet_01v8_lvt l=0.150 nf=1 w=0.640

  X6 a_709_119# A1 a_193_241# VNB sky130_fd_pr__nfet_01v8_lvt l=0.150 nf=1 w=0.640

  X7 X a_193_241# VGND VNB sky130_fd_pr__nfet_01v8_lvt l=0.150 nf=1 w=0.740

  X8 X a_193_241# VPWR VPB sky130_fd_pr__pfet_01v8 l=0.150 nf=1 w=1.120

  X9 VPWR a_27_368# a_936_391# VPB sky130_fd_pr__pfet_01v8 l=0.150 nf=1 w=1.000

  X10 X a_193_241# VGND VNB sky130_fd_pr__nfet_01v8_lvt l=0.150 nf=1 w=0.740

  X11 a_193_241# A0 a_722_391# VPB sky130_fd_pr__pfet_01v8 l=0.150 nf=1 w=1.000

  X12 a_937_119# A0 a_193_241# VNB sky130_fd_pr__nfet_01v8_lvt l=0.150 nf=1 w=0.640

  X13 a_936_391# a_27_368# VPWR VPB sky130_fd_pr__pfet_01v8 l=0.150 nf=1 w=1.000

  X14 VGND a_193_241# X VNB sky130_fd_pr__nfet_01v8_lvt l=0.150 nf=1 w=0.740

  X15 VPWR a_193_241# X VPB sky130_fd_pr__pfet_01v8 l=0.150 nf=1 w=1.120

  X16 VPWR S a_722_391# VPB sky130_fd_pr__pfet_01v8 l=0.150 nf=1 w=1.000

  X17 a_936_391# A1 a_193_241# VPB sky130_fd_pr__pfet_01v8 l=0.150 nf=1 w=1.000

  X18 a_193_241# A0 a_937_119# VNB sky130_fd_pr__nfet_01v8_lvt l=0.150 nf=1 w=0.640

  X19 a_193_241# A1 a_709_119# VNB sky130_fd_pr__nfet_01v8_lvt l=0.150 nf=1 w=0.640

  X20 X a_193_241# VPWR VPB sky130_fd_pr__pfet_01v8 l=0.150 nf=1 w=1.120

  X21 VGND a_193_241# X VNB sky130_fd_pr__nfet_01v8_lvt l=0.150 nf=1 w=0.740

  X22 a_27_368# S VGND VNB sky130_fd_pr__nfet_01v8_lvt l=0.150 nf=1 w=0.640

  X23 a_937_119# a_27_368# VGND VNB sky130_fd_pr__nfet_01v8_lvt l=0.150 nf=1 w=0.640

  X24 VPWR a_193_241# X VPB sky130_fd_pr__pfet_01v8 l=0.150 nf=1 w=1.120

  X25 VGND S a_709_119# VNB sky130_fd_pr__nfet_01v8_lvt l=0.150 nf=1 w=0.640


.ENDS sky130_fd_sc_hs__mux2_4

.SUBCKT sky130_fd_sc_hs__mux2_4_wrapper A0 A1 S VGND VNB VPB VPWR X

  X0 A0 A1 S VGND VNB VPB VPWR X sky130_fd_sc_hs__mux2_4

.ENDS sky130_fd_sc_hs__mux2_4_wrapper

.SUBCKT mos_w5000_l150_m1_nf1_id1 d g s b

  X0 d g s b sky130_fd_pr__pfet_01v8 l=0.150 nf=1 w=5.000


.ENDS mos_w5000_l150_m1_nf1_id1

.SUBCKT mos_w2000_l150_m1_nf1_id0 d g s b

  X0 d g s b sky130_fd_pr__nfet_01v8 l=0.150 nf=1 w=2.000


.ENDS mos_w2000_l150_m1_nf1_id0

.SUBCKT mos_w2500_l150_m1_nf1_id1 d g s b

  X0 d g s b sky130_fd_pr__pfet_01v8 l=0.150 nf=1 w=2.500


.ENDS mos_w2500_l150_m1_nf1_id1

.SUBCKT nand2 vdd vss a b y

  Xn1 x a vss vss mos_w2000_l150_m1_nf1_id0
  Xn2 y b x vss mos_w2000_l150_m1_nf1_id0
  Xp1 y a vdd vdd mos_w2500_l150_m1_nf1_id1
  Xp2 y b vdd vdd mos_w2500_l150_m1_nf1_id1

.ENDS nand2

.SUBCKT mos_w2800_l150_m1_nf1_id1 d g s b

  X0 d g s b sky130_fd_pr__pfet_01v8 l=0.150 nf=1 w=2.800


.ENDS mos_w2800_l150_m1_nf1_id1

.SUBCKT mos_w1130_l150_m1_nf1_id0 d g s b

  X0 d g s b sky130_fd_pr__nfet_01v8 l=0.150 nf=1 w=1.130


.ENDS mos_w1130_l150_m1_nf1_id0

.SUBCKT folded_inv_5 vdd vss a y

  XMP0 y a vdd vdd mos_w2800_l150_m1_nf1_id1
  XMN0 y a vss vss mos_w1130_l150_m1_nf1_id0
  XMP1 y a vdd vdd mos_w2800_l150_m1_nf1_id1
  XMN1 y a vss vss mos_w1130_l150_m1_nf1_id0

.ENDS folded_inv_5

.SUBCKT and2_1 vdd a b y yb vss

  X0 vdd vss a b yb nand2
  X0_1 vdd vss yb y folded_inv_5

.ENDS and2_1

.SUBCKT mos_w700_l150_m1_nf1_id1 d g s b

  X0 d g s b sky130_fd_pr__pfet_01v8 l=0.150 nf=1 w=0.700


.ENDS mos_w700_l150_m1_nf1_id1

.SUBCKT mos_w700_l150_m1_nf1_id0 d g s b

  X0 d g s b sky130_fd_pr__nfet_01v8 l=0.150 nf=1 w=0.700


.ENDS mos_w700_l150_m1_nf1_id0

.SUBCKT multi_finger_inv_8 vdd vss a y

  XMP0 y a vdd vdd mos_w700_l150_m1_nf1_id1
  XMP1 y a vdd vdd mos_w700_l150_m1_nf1_id1
  XMP2 y a vdd vdd mos_w700_l150_m1_nf1_id1
  XMP3 y a vdd vdd mos_w700_l150_m1_nf1_id1
  XMP4 y a vdd vdd mos_w700_l150_m1_nf1_id1
  XMP5 y a vdd vdd mos_w700_l150_m1_nf1_id1
  XMP6 y a vdd vdd mos_w700_l150_m1_nf1_id1
  XMP7 y a vdd vdd mos_w700_l150_m1_nf1_id1
  XMP8 y a vdd vdd mos_w700_l150_m1_nf1_id1
  XMP9 y a vdd vdd mos_w700_l150_m1_nf1_id1
  XMP10 y a vdd vdd mos_w700_l150_m1_nf1_id1
  XMP11 y a vdd vdd mos_w700_l150_m1_nf1_id1
  XMP12 y a vdd vdd mos_w700_l150_m1_nf1_id1
  XMP13 y a vdd vdd mos_w700_l150_m1_nf1_id1
  XMP14 y a vdd vdd mos_w700_l150_m1_nf1_id1
  XMP15 y a vdd vdd mos_w700_l150_m1_nf1_id1
  XMP16 y a vdd vdd mos_w700_l150_m1_nf1_id1
  XMP17 y a vdd vdd mos_w700_l150_m1_nf1_id1
  XMP18 y a vdd vdd mos_w700_l150_m1_nf1_id1
  XMN0 y a vss vss mos_w700_l150_m1_nf1_id0
  XMN1 y a vss vss mos_w700_l150_m1_nf1_id0
  XMN2 y a vss vss mos_w700_l150_m1_nf1_id0
  XMN3 y a vss vss mos_w700_l150_m1_nf1_id0
  XMN4 y a vss vss mos_w700_l150_m1_nf1_id0
  XMN5 y a vss vss mos_w700_l150_m1_nf1_id0
  XMN6 y a vss vss mos_w700_l150_m1_nf1_id0

.ENDS multi_finger_inv_8

.SUBCKT multi_finger_inv_9 vdd vss a y

  XMP0 y a vdd vdd mos_w700_l150_m1_nf1_id1
  XMP1 y a vdd vdd mos_w700_l150_m1_nf1_id1
  XMP2 y a vdd vdd mos_w700_l150_m1_nf1_id1
  XMP3 y a vdd vdd mos_w700_l150_m1_nf1_id1
  XMP4 y a vdd vdd mos_w700_l150_m1_nf1_id1
  XMP5 y a vdd vdd mos_w700_l150_m1_nf1_id1
  XMP6 y a vdd vdd mos_w700_l150_m1_nf1_id1
  XMP7 y a vdd vdd mos_w700_l150_m1_nf1_id1
  XMP8 y a vdd vdd mos_w700_l150_m1_nf1_id1
  XMP9 y a vdd vdd mos_w700_l150_m1_nf1_id1
  XMP10 y a vdd vdd mos_w700_l150_m1_nf1_id1
  XMP11 y a vdd vdd mos_w700_l150_m1_nf1_id1
  XMP12 y a vdd vdd mos_w700_l150_m1_nf1_id1
  XMP13 y a vdd vdd mos_w700_l150_m1_nf1_id1
  XMP14 y a vdd vdd mos_w700_l150_m1_nf1_id1
  XMP15 y a vdd vdd mos_w700_l150_m1_nf1_id1
  XMP16 y a vdd vdd mos_w700_l150_m1_nf1_id1
  XMP17 y a vdd vdd mos_w700_l150_m1_nf1_id1
  XMP18 y a vdd vdd mos_w700_l150_m1_nf1_id1
  XMP19 y a vdd vdd mos_w700_l150_m1_nf1_id1
  XMP20 y a vdd vdd mos_w700_l150_m1_nf1_id1
  XMP21 y a vdd vdd mos_w700_l150_m1_nf1_id1
  XMP22 y a vdd vdd mos_w700_l150_m1_nf1_id1
  XMP23 y a vdd vdd mos_w700_l150_m1_nf1_id1
  XMP24 y a vdd vdd mos_w700_l150_m1_nf1_id1
  XMP25 y a vdd vdd mos_w700_l150_m1_nf1_id1
  XMP26 y a vdd vdd mos_w700_l150_m1_nf1_id1
  XMP27 y a vdd vdd mos_w700_l150_m1_nf1_id1
  XMP28 y a vdd vdd mos_w700_l150_m1_nf1_id1
  XMP29 y a vdd vdd mos_w700_l150_m1_nf1_id1
  XMP30 y a vdd vdd mos_w700_l150_m1_nf1_id1
  XMP31 y a vdd vdd mos_w700_l150_m1_nf1_id1
  XMP32 y a vdd vdd mos_w700_l150_m1_nf1_id1
  XMP33 y a vdd vdd mos_w700_l150_m1_nf1_id1
  XMP34 y a vdd vdd mos_w700_l150_m1_nf1_id1
  XMP35 y a vdd vdd mos_w700_l150_m1_nf1_id1
  XMP36 y a vdd vdd mos_w700_l150_m1_nf1_id1
  XMP37 y a vdd vdd mos_w700_l150_m1_nf1_id1
  XMP38 y a vdd vdd mos_w700_l150_m1_nf1_id1
  XMP39 y a vdd vdd mos_w700_l150_m1_nf1_id1
  XMP40 y a vdd vdd mos_w700_l150_m1_nf1_id1
  XMP41 y a vdd vdd mos_w700_l150_m1_nf1_id1
  XMP42 y a vdd vdd mos_w700_l150_m1_nf1_id1
  XMN0 y a vss vss mos_w700_l150_m1_nf1_id0
  XMN1 y a vss vss mos_w700_l150_m1_nf1_id0
  XMN2 y a vss vss mos_w700_l150_m1_nf1_id0
  XMN3 y a vss vss mos_w700_l150_m1_nf1_id0
  XMN4 y a vss vss mos_w700_l150_m1_nf1_id0
  XMN5 y a vss vss mos_w700_l150_m1_nf1_id0
  XMN6 y a vss vss mos_w700_l150_m1_nf1_id0
  XMN7 y a vss vss mos_w700_l150_m1_nf1_id0
  XMN8 y a vss vss mos_w700_l150_m1_nf1_id0
  XMN9 y a vss vss mos_w700_l150_m1_nf1_id0
  XMN10 y a vss vss mos_w700_l150_m1_nf1_id0
  XMN11 y a vss vss mos_w700_l150_m1_nf1_id0
  XMN12 y a vss vss mos_w700_l150_m1_nf1_id0
  XMN13 y a vss vss mos_w700_l150_m1_nf1_id0
  XMN14 y a vss vss mos_w700_l150_m1_nf1_id0
  XMN15 y a vss vss mos_w700_l150_m1_nf1_id0
  XMN16 y a vss vss mos_w700_l150_m1_nf1_id0

.ENDS multi_finger_inv_9

.SUBCKT decoder_stage_5 vdd vss y[0] y[1] y[2] y[3] y[4] y[5] y[6] y[7] y[8] y[9] y[10] y[11] y[12] y[13] y[14] y[15] y[16] y[17] y[18] y[19] y[20] y[21] y[22] y[23] y[24] y[25] y[26] y[27] y[28] y[29] y[30] y[31] y[32] y[33] y[34] y[35] y[36] y[37] y[38] y[39] y[40] y[41] y[42] y[43] y[44] y[45] y[46] y[47] y[48] y[49] y[50] y[51] y[52] y[53] y[54] y[55] y[56] y[57] y[58] y[59] y[60] y[61] y[62] y[63] y[64] y[65] y[66] y[67] y[68] y[69] y[70] y[71] y[72] y[73] y[74] y[75] y[76] y[77] y[78] y[79] y[80] y[81] y[82] y[83] y[84] y[85] y[86] y[87] y[88] y[89] y[90] y[91] y[92] y[93] y[94] y[95] y[96] y[97] y[98] y[99] y[100] y[101] y[102] y[103] y[104] y[105] y[106] y[107] y[108] y[109] y[110] y[111] y[112] y[113] y[114] y[115] y[116] y[117] y[118] y[119] y[120] y[121] y[122] y[123] y[124] y[125] y[126] y[127] y[128] y[129] y[130] y[131] y[132] y[133] y[134] y[135] y[136] y[137] y[138] y[139] y[140] y[141] y[142] y[143] y[144] y[145] y[146] y[147] y[148] y[149] y[150] y[151] y[152] y[153] y[154] y[155] y[156] y[157] y[158] y[159] y[160] y[161] y[162] y[163] y[164] y[165] y[166] y[167] y[168] y[169] y[170] y[171] y[172] y[173] y[174] y[175] y[176] y[177] y[178] y[179] y[180] y[181] y[182] y[183] y[184] y[185] y[186] y[187] y[188] y[189] y[190] y[191] y[192] y[193] y[194] y[195] y[196] y[197] y[198] y[199] y[200] y[201] y[202] y[203] y[204] y[205] y[206] y[207] y[208] y[209] y[210] y[211] y[212] y[213] y[214] y[215] y[216] y[217] y[218] y[219] y[220] y[221] y[222] y[223] y[224] y[225] y[226] y[227] y[228] y[229] y[230] y[231] y[232] y[233] y[234] y[235] y[236] y[237] y[238] y[239] y[240] y[241] y[242] y[243] y[244] y[245] y[246] y[247] y[248] y[249] y[250] y[251] y[252] y[253] y[254] y[255] y_b[0] y_b[1] y_b[2] y_b[3] y_b[4] y_b[5] y_b[6] y_b[7] y_b[8] y_b[9] y_b[10] y_b[11] y_b[12] y_b[13] y_b[14] y_b[15] y_b[16] y_b[17] y_b[18] y_b[19] y_b[20] y_b[21] y_b[22] y_b[23] y_b[24] y_b[25] y_b[26] y_b[27] y_b[28] y_b[29] y_b[30] y_b[31] y_b[32] y_b[33] y_b[34] y_b[35] y_b[36] y_b[37] y_b[38] y_b[39] y_b[40] y_b[41] y_b[42] y_b[43] y_b[44] y_b[45] y_b[46] y_b[47] y_b[48] y_b[49] y_b[50] y_b[51] y_b[52] y_b[53] y_b[54] y_b[55] y_b[56] y_b[57] y_b[58] y_b[59] y_b[60] y_b[61] y_b[62] y_b[63] y_b[64] y_b[65] y_b[66] y_b[67] y_b[68] y_b[69] y_b[70] y_b[71] y_b[72] y_b[73] y_b[74] y_b[75] y_b[76] y_b[77] y_b[78] y_b[79] y_b[80] y_b[81] y_b[82] y_b[83] y_b[84] y_b[85] y_b[86] y_b[87] y_b[88] y_b[89] y_b[90] y_b[91] y_b[92] y_b[93] y_b[94] y_b[95] y_b[96] y_b[97] y_b[98] y_b[99] y_b[100] y_b[101] y_b[102] y_b[103] y_b[104] y_b[105] y_b[106] y_b[107] y_b[108] y_b[109] y_b[110] y_b[111] y_b[112] y_b[113] y_b[114] y_b[115] y_b[116] y_b[117] y_b[118] y_b[119] y_b[120] y_b[121] y_b[122] y_b[123] y_b[124] y_b[125] y_b[126] y_b[127] y_b[128] y_b[129] y_b[130] y_b[131] y_b[132] y_b[133] y_b[134] y_b[135] y_b[136] y_b[137] y_b[138] y_b[139] y_b[140] y_b[141] y_b[142] y_b[143] y_b[144] y_b[145] y_b[146] y_b[147] y_b[148] y_b[149] y_b[150] y_b[151] y_b[152] y_b[153] y_b[154] y_b[155] y_b[156] y_b[157] y_b[158] y_b[159] y_b[160] y_b[161] y_b[162] y_b[163] y_b[164] y_b[165] y_b[166] y_b[167] y_b[168] y_b[169] y_b[170] y_b[171] y_b[172] y_b[173] y_b[174] y_b[175] y_b[176] y_b[177] y_b[178] y_b[179] y_b[180] y_b[181] y_b[182] y_b[183] y_b[184] y_b[185] y_b[186] y_b[187] y_b[188] y_b[189] y_b[190] y_b[191] y_b[192] y_b[193] y_b[194] y_b[195] y_b[196] y_b[197] y_b[198] y_b[199] y_b[200] y_b[201] y_b[202] y_b[203] y_b[204] y_b[205] y_b[206] y_b[207] y_b[208] y_b[209] y_b[210] y_b[211] y_b[212] y_b[213] y_b[214] y_b[215] y_b[216] y_b[217] y_b[218] y_b[219] y_b[220] y_b[221] y_b[222] y_b[223] y_b[224] y_b[225] y_b[226] y_b[227] y_b[228] y_b[229] y_b[230] y_b[231] y_b[232] y_b[233] y_b[234] y_b[235] y_b[236] y_b[237] y_b[238] y_b[239] y_b[240] y_b[241] y_b[242] y_b[243] y_b[244] y_b[245] y_b[246] y_b[247] y_b[248] y_b[249] y_b[250] y_b[251] y_b[252] y_b[253] y_b[254] y_b[255] predecode_0_0 predecode_0_1 predecode_0_2 predecode_0_3 predecode_0_4 predecode_0_5 predecode_0_6 predecode_0_7 predecode_0_8 predecode_0_9 predecode_0_10 predecode_0_11 predecode_0_12 predecode_0_13 predecode_0_14 predecode_0_15 predecode_1_0 predecode_1_1 predecode_1_2 predecode_1_3 predecode_1_4 predecode_1_5 predecode_1_6 predecode_1_7 predecode_1_8 predecode_1_9 predecode_1_10 predecode_1_11 predecode_1_12 predecode_1_13 predecode_1_14 predecode_1_15

  Xgate_0_0_0 vdd predecode_0_0 predecode_1_0 x_0[0] y_b_noconn_0_0_0 vss and2_1
  Xgate_0_1_0 vdd predecode_0_1 predecode_1_0 x_0[1] y_b_noconn_0_1_0 vss and2_1
  Xgate_0_2_0 vdd predecode_0_2 predecode_1_0 x_0[2] y_b_noconn_0_2_0 vss and2_1
  Xgate_0_3_0 vdd predecode_0_3 predecode_1_0 x_0[3] y_b_noconn_0_3_0 vss and2_1
  Xgate_0_4_0 vdd predecode_0_4 predecode_1_0 x_0[4] y_b_noconn_0_4_0 vss and2_1
  Xgate_0_5_0 vdd predecode_0_5 predecode_1_0 x_0[5] y_b_noconn_0_5_0 vss and2_1
  Xgate_0_6_0 vdd predecode_0_6 predecode_1_0 x_0[6] y_b_noconn_0_6_0 vss and2_1
  Xgate_0_7_0 vdd predecode_0_7 predecode_1_0 x_0[7] y_b_noconn_0_7_0 vss and2_1
  Xgate_0_8_0 vdd predecode_0_8 predecode_1_0 x_0[8] y_b_noconn_0_8_0 vss and2_1
  Xgate_0_9_0 vdd predecode_0_9 predecode_1_0 x_0[9] y_b_noconn_0_9_0 vss and2_1
  Xgate_0_10_0 vdd predecode_0_10 predecode_1_0 x_0[10] y_b_noconn_0_10_0 vss and2_1
  Xgate_0_11_0 vdd predecode_0_11 predecode_1_0 x_0[11] y_b_noconn_0_11_0 vss and2_1
  Xgate_0_12_0 vdd predecode_0_12 predecode_1_0 x_0[12] y_b_noconn_0_12_0 vss and2_1
  Xgate_0_13_0 vdd predecode_0_13 predecode_1_0 x_0[13] y_b_noconn_0_13_0 vss and2_1
  Xgate_0_14_0 vdd predecode_0_14 predecode_1_0 x_0[14] y_b_noconn_0_14_0 vss and2_1
  Xgate_0_15_0 vdd predecode_0_15 predecode_1_0 x_0[15] y_b_noconn_0_15_0 vss and2_1
  Xgate_0_16_0 vdd predecode_0_0 predecode_1_1 x_0[16] y_b_noconn_0_16_0 vss and2_1
  Xgate_0_17_0 vdd predecode_0_1 predecode_1_1 x_0[17] y_b_noconn_0_17_0 vss and2_1
  Xgate_0_18_0 vdd predecode_0_2 predecode_1_1 x_0[18] y_b_noconn_0_18_0 vss and2_1
  Xgate_0_19_0 vdd predecode_0_3 predecode_1_1 x_0[19] y_b_noconn_0_19_0 vss and2_1
  Xgate_0_20_0 vdd predecode_0_4 predecode_1_1 x_0[20] y_b_noconn_0_20_0 vss and2_1
  Xgate_0_21_0 vdd predecode_0_5 predecode_1_1 x_0[21] y_b_noconn_0_21_0 vss and2_1
  Xgate_0_22_0 vdd predecode_0_6 predecode_1_1 x_0[22] y_b_noconn_0_22_0 vss and2_1
  Xgate_0_23_0 vdd predecode_0_7 predecode_1_1 x_0[23] y_b_noconn_0_23_0 vss and2_1
  Xgate_0_24_0 vdd predecode_0_8 predecode_1_1 x_0[24] y_b_noconn_0_24_0 vss and2_1
  Xgate_0_25_0 vdd predecode_0_9 predecode_1_1 x_0[25] y_b_noconn_0_25_0 vss and2_1
  Xgate_0_26_0 vdd predecode_0_10 predecode_1_1 x_0[26] y_b_noconn_0_26_0 vss and2_1
  Xgate_0_27_0 vdd predecode_0_11 predecode_1_1 x_0[27] y_b_noconn_0_27_0 vss and2_1
  Xgate_0_28_0 vdd predecode_0_12 predecode_1_1 x_0[28] y_b_noconn_0_28_0 vss and2_1
  Xgate_0_29_0 vdd predecode_0_13 predecode_1_1 x_0[29] y_b_noconn_0_29_0 vss and2_1
  Xgate_0_30_0 vdd predecode_0_14 predecode_1_1 x_0[30] y_b_noconn_0_30_0 vss and2_1
  Xgate_0_31_0 vdd predecode_0_15 predecode_1_1 x_0[31] y_b_noconn_0_31_0 vss and2_1
  Xgate_0_32_0 vdd predecode_0_0 predecode_1_2 x_0[32] y_b_noconn_0_32_0 vss and2_1
  Xgate_0_33_0 vdd predecode_0_1 predecode_1_2 x_0[33] y_b_noconn_0_33_0 vss and2_1
  Xgate_0_34_0 vdd predecode_0_2 predecode_1_2 x_0[34] y_b_noconn_0_34_0 vss and2_1
  Xgate_0_35_0 vdd predecode_0_3 predecode_1_2 x_0[35] y_b_noconn_0_35_0 vss and2_1
  Xgate_0_36_0 vdd predecode_0_4 predecode_1_2 x_0[36] y_b_noconn_0_36_0 vss and2_1
  Xgate_0_37_0 vdd predecode_0_5 predecode_1_2 x_0[37] y_b_noconn_0_37_0 vss and2_1
  Xgate_0_38_0 vdd predecode_0_6 predecode_1_2 x_0[38] y_b_noconn_0_38_0 vss and2_1
  Xgate_0_39_0 vdd predecode_0_7 predecode_1_2 x_0[39] y_b_noconn_0_39_0 vss and2_1
  Xgate_0_40_0 vdd predecode_0_8 predecode_1_2 x_0[40] y_b_noconn_0_40_0 vss and2_1
  Xgate_0_41_0 vdd predecode_0_9 predecode_1_2 x_0[41] y_b_noconn_0_41_0 vss and2_1
  Xgate_0_42_0 vdd predecode_0_10 predecode_1_2 x_0[42] y_b_noconn_0_42_0 vss and2_1
  Xgate_0_43_0 vdd predecode_0_11 predecode_1_2 x_0[43] y_b_noconn_0_43_0 vss and2_1
  Xgate_0_44_0 vdd predecode_0_12 predecode_1_2 x_0[44] y_b_noconn_0_44_0 vss and2_1
  Xgate_0_45_0 vdd predecode_0_13 predecode_1_2 x_0[45] y_b_noconn_0_45_0 vss and2_1
  Xgate_0_46_0 vdd predecode_0_14 predecode_1_2 x_0[46] y_b_noconn_0_46_0 vss and2_1
  Xgate_0_47_0 vdd predecode_0_15 predecode_1_2 x_0[47] y_b_noconn_0_47_0 vss and2_1
  Xgate_0_48_0 vdd predecode_0_0 predecode_1_3 x_0[48] y_b_noconn_0_48_0 vss and2_1
  Xgate_0_49_0 vdd predecode_0_1 predecode_1_3 x_0[49] y_b_noconn_0_49_0 vss and2_1
  Xgate_0_50_0 vdd predecode_0_2 predecode_1_3 x_0[50] y_b_noconn_0_50_0 vss and2_1
  Xgate_0_51_0 vdd predecode_0_3 predecode_1_3 x_0[51] y_b_noconn_0_51_0 vss and2_1
  Xgate_0_52_0 vdd predecode_0_4 predecode_1_3 x_0[52] y_b_noconn_0_52_0 vss and2_1
  Xgate_0_53_0 vdd predecode_0_5 predecode_1_3 x_0[53] y_b_noconn_0_53_0 vss and2_1
  Xgate_0_54_0 vdd predecode_0_6 predecode_1_3 x_0[54] y_b_noconn_0_54_0 vss and2_1
  Xgate_0_55_0 vdd predecode_0_7 predecode_1_3 x_0[55] y_b_noconn_0_55_0 vss and2_1
  Xgate_0_56_0 vdd predecode_0_8 predecode_1_3 x_0[56] y_b_noconn_0_56_0 vss and2_1
  Xgate_0_57_0 vdd predecode_0_9 predecode_1_3 x_0[57] y_b_noconn_0_57_0 vss and2_1
  Xgate_0_58_0 vdd predecode_0_10 predecode_1_3 x_0[58] y_b_noconn_0_58_0 vss and2_1
  Xgate_0_59_0 vdd predecode_0_11 predecode_1_3 x_0[59] y_b_noconn_0_59_0 vss and2_1
  Xgate_0_60_0 vdd predecode_0_12 predecode_1_3 x_0[60] y_b_noconn_0_60_0 vss and2_1
  Xgate_0_61_0 vdd predecode_0_13 predecode_1_3 x_0[61] y_b_noconn_0_61_0 vss and2_1
  Xgate_0_62_0 vdd predecode_0_14 predecode_1_3 x_0[62] y_b_noconn_0_62_0 vss and2_1
  Xgate_0_63_0 vdd predecode_0_15 predecode_1_3 x_0[63] y_b_noconn_0_63_0 vss and2_1
  Xgate_0_64_0 vdd predecode_0_0 predecode_1_4 x_0[64] y_b_noconn_0_64_0 vss and2_1
  Xgate_0_65_0 vdd predecode_0_1 predecode_1_4 x_0[65] y_b_noconn_0_65_0 vss and2_1
  Xgate_0_66_0 vdd predecode_0_2 predecode_1_4 x_0[66] y_b_noconn_0_66_0 vss and2_1
  Xgate_0_67_0 vdd predecode_0_3 predecode_1_4 x_0[67] y_b_noconn_0_67_0 vss and2_1
  Xgate_0_68_0 vdd predecode_0_4 predecode_1_4 x_0[68] y_b_noconn_0_68_0 vss and2_1
  Xgate_0_69_0 vdd predecode_0_5 predecode_1_4 x_0[69] y_b_noconn_0_69_0 vss and2_1
  Xgate_0_70_0 vdd predecode_0_6 predecode_1_4 x_0[70] y_b_noconn_0_70_0 vss and2_1
  Xgate_0_71_0 vdd predecode_0_7 predecode_1_4 x_0[71] y_b_noconn_0_71_0 vss and2_1
  Xgate_0_72_0 vdd predecode_0_8 predecode_1_4 x_0[72] y_b_noconn_0_72_0 vss and2_1
  Xgate_0_73_0 vdd predecode_0_9 predecode_1_4 x_0[73] y_b_noconn_0_73_0 vss and2_1
  Xgate_0_74_0 vdd predecode_0_10 predecode_1_4 x_0[74] y_b_noconn_0_74_0 vss and2_1
  Xgate_0_75_0 vdd predecode_0_11 predecode_1_4 x_0[75] y_b_noconn_0_75_0 vss and2_1
  Xgate_0_76_0 vdd predecode_0_12 predecode_1_4 x_0[76] y_b_noconn_0_76_0 vss and2_1
  Xgate_0_77_0 vdd predecode_0_13 predecode_1_4 x_0[77] y_b_noconn_0_77_0 vss and2_1
  Xgate_0_78_0 vdd predecode_0_14 predecode_1_4 x_0[78] y_b_noconn_0_78_0 vss and2_1
  Xgate_0_79_0 vdd predecode_0_15 predecode_1_4 x_0[79] y_b_noconn_0_79_0 vss and2_1
  Xgate_0_80_0 vdd predecode_0_0 predecode_1_5 x_0[80] y_b_noconn_0_80_0 vss and2_1
  Xgate_0_81_0 vdd predecode_0_1 predecode_1_5 x_0[81] y_b_noconn_0_81_0 vss and2_1
  Xgate_0_82_0 vdd predecode_0_2 predecode_1_5 x_0[82] y_b_noconn_0_82_0 vss and2_1
  Xgate_0_83_0 vdd predecode_0_3 predecode_1_5 x_0[83] y_b_noconn_0_83_0 vss and2_1
  Xgate_0_84_0 vdd predecode_0_4 predecode_1_5 x_0[84] y_b_noconn_0_84_0 vss and2_1
  Xgate_0_85_0 vdd predecode_0_5 predecode_1_5 x_0[85] y_b_noconn_0_85_0 vss and2_1
  Xgate_0_86_0 vdd predecode_0_6 predecode_1_5 x_0[86] y_b_noconn_0_86_0 vss and2_1
  Xgate_0_87_0 vdd predecode_0_7 predecode_1_5 x_0[87] y_b_noconn_0_87_0 vss and2_1
  Xgate_0_88_0 vdd predecode_0_8 predecode_1_5 x_0[88] y_b_noconn_0_88_0 vss and2_1
  Xgate_0_89_0 vdd predecode_0_9 predecode_1_5 x_0[89] y_b_noconn_0_89_0 vss and2_1
  Xgate_0_90_0 vdd predecode_0_10 predecode_1_5 x_0[90] y_b_noconn_0_90_0 vss and2_1
  Xgate_0_91_0 vdd predecode_0_11 predecode_1_5 x_0[91] y_b_noconn_0_91_0 vss and2_1
  Xgate_0_92_0 vdd predecode_0_12 predecode_1_5 x_0[92] y_b_noconn_0_92_0 vss and2_1
  Xgate_0_93_0 vdd predecode_0_13 predecode_1_5 x_0[93] y_b_noconn_0_93_0 vss and2_1
  Xgate_0_94_0 vdd predecode_0_14 predecode_1_5 x_0[94] y_b_noconn_0_94_0 vss and2_1
  Xgate_0_95_0 vdd predecode_0_15 predecode_1_5 x_0[95] y_b_noconn_0_95_0 vss and2_1
  Xgate_0_96_0 vdd predecode_0_0 predecode_1_6 x_0[96] y_b_noconn_0_96_0 vss and2_1
  Xgate_0_97_0 vdd predecode_0_1 predecode_1_6 x_0[97] y_b_noconn_0_97_0 vss and2_1
  Xgate_0_98_0 vdd predecode_0_2 predecode_1_6 x_0[98] y_b_noconn_0_98_0 vss and2_1
  Xgate_0_99_0 vdd predecode_0_3 predecode_1_6 x_0[99] y_b_noconn_0_99_0 vss and2_1
  Xgate_0_100_0 vdd predecode_0_4 predecode_1_6 x_0[100] y_b_noconn_0_100_0 vss and2_1
  Xgate_0_101_0 vdd predecode_0_5 predecode_1_6 x_0[101] y_b_noconn_0_101_0 vss and2_1
  Xgate_0_102_0 vdd predecode_0_6 predecode_1_6 x_0[102] y_b_noconn_0_102_0 vss and2_1
  Xgate_0_103_0 vdd predecode_0_7 predecode_1_6 x_0[103] y_b_noconn_0_103_0 vss and2_1
  Xgate_0_104_0 vdd predecode_0_8 predecode_1_6 x_0[104] y_b_noconn_0_104_0 vss and2_1
  Xgate_0_105_0 vdd predecode_0_9 predecode_1_6 x_0[105] y_b_noconn_0_105_0 vss and2_1
  Xgate_0_106_0 vdd predecode_0_10 predecode_1_6 x_0[106] y_b_noconn_0_106_0 vss and2_1
  Xgate_0_107_0 vdd predecode_0_11 predecode_1_6 x_0[107] y_b_noconn_0_107_0 vss and2_1
  Xgate_0_108_0 vdd predecode_0_12 predecode_1_6 x_0[108] y_b_noconn_0_108_0 vss and2_1
  Xgate_0_109_0 vdd predecode_0_13 predecode_1_6 x_0[109] y_b_noconn_0_109_0 vss and2_1
  Xgate_0_110_0 vdd predecode_0_14 predecode_1_6 x_0[110] y_b_noconn_0_110_0 vss and2_1
  Xgate_0_111_0 vdd predecode_0_15 predecode_1_6 x_0[111] y_b_noconn_0_111_0 vss and2_1
  Xgate_0_112_0 vdd predecode_0_0 predecode_1_7 x_0[112] y_b_noconn_0_112_0 vss and2_1
  Xgate_0_113_0 vdd predecode_0_1 predecode_1_7 x_0[113] y_b_noconn_0_113_0 vss and2_1
  Xgate_0_114_0 vdd predecode_0_2 predecode_1_7 x_0[114] y_b_noconn_0_114_0 vss and2_1
  Xgate_0_115_0 vdd predecode_0_3 predecode_1_7 x_0[115] y_b_noconn_0_115_0 vss and2_1
  Xgate_0_116_0 vdd predecode_0_4 predecode_1_7 x_0[116] y_b_noconn_0_116_0 vss and2_1
  Xgate_0_117_0 vdd predecode_0_5 predecode_1_7 x_0[117] y_b_noconn_0_117_0 vss and2_1
  Xgate_0_118_0 vdd predecode_0_6 predecode_1_7 x_0[118] y_b_noconn_0_118_0 vss and2_1
  Xgate_0_119_0 vdd predecode_0_7 predecode_1_7 x_0[119] y_b_noconn_0_119_0 vss and2_1
  Xgate_0_120_0 vdd predecode_0_8 predecode_1_7 x_0[120] y_b_noconn_0_120_0 vss and2_1
  Xgate_0_121_0 vdd predecode_0_9 predecode_1_7 x_0[121] y_b_noconn_0_121_0 vss and2_1
  Xgate_0_122_0 vdd predecode_0_10 predecode_1_7 x_0[122] y_b_noconn_0_122_0 vss and2_1
  Xgate_0_123_0 vdd predecode_0_11 predecode_1_7 x_0[123] y_b_noconn_0_123_0 vss and2_1
  Xgate_0_124_0 vdd predecode_0_12 predecode_1_7 x_0[124] y_b_noconn_0_124_0 vss and2_1
  Xgate_0_125_0 vdd predecode_0_13 predecode_1_7 x_0[125] y_b_noconn_0_125_0 vss and2_1
  Xgate_0_126_0 vdd predecode_0_14 predecode_1_7 x_0[126] y_b_noconn_0_126_0 vss and2_1
  Xgate_0_127_0 vdd predecode_0_15 predecode_1_7 x_0[127] y_b_noconn_0_127_0 vss and2_1
  Xgate_0_128_0 vdd predecode_0_0 predecode_1_8 x_0[128] y_b_noconn_0_128_0 vss and2_1
  Xgate_0_129_0 vdd predecode_0_1 predecode_1_8 x_0[129] y_b_noconn_0_129_0 vss and2_1
  Xgate_0_130_0 vdd predecode_0_2 predecode_1_8 x_0[130] y_b_noconn_0_130_0 vss and2_1
  Xgate_0_131_0 vdd predecode_0_3 predecode_1_8 x_0[131] y_b_noconn_0_131_0 vss and2_1
  Xgate_0_132_0 vdd predecode_0_4 predecode_1_8 x_0[132] y_b_noconn_0_132_0 vss and2_1
  Xgate_0_133_0 vdd predecode_0_5 predecode_1_8 x_0[133] y_b_noconn_0_133_0 vss and2_1
  Xgate_0_134_0 vdd predecode_0_6 predecode_1_8 x_0[134] y_b_noconn_0_134_0 vss and2_1
  Xgate_0_135_0 vdd predecode_0_7 predecode_1_8 x_0[135] y_b_noconn_0_135_0 vss and2_1
  Xgate_0_136_0 vdd predecode_0_8 predecode_1_8 x_0[136] y_b_noconn_0_136_0 vss and2_1
  Xgate_0_137_0 vdd predecode_0_9 predecode_1_8 x_0[137] y_b_noconn_0_137_0 vss and2_1
  Xgate_0_138_0 vdd predecode_0_10 predecode_1_8 x_0[138] y_b_noconn_0_138_0 vss and2_1
  Xgate_0_139_0 vdd predecode_0_11 predecode_1_8 x_0[139] y_b_noconn_0_139_0 vss and2_1
  Xgate_0_140_0 vdd predecode_0_12 predecode_1_8 x_0[140] y_b_noconn_0_140_0 vss and2_1
  Xgate_0_141_0 vdd predecode_0_13 predecode_1_8 x_0[141] y_b_noconn_0_141_0 vss and2_1
  Xgate_0_142_0 vdd predecode_0_14 predecode_1_8 x_0[142] y_b_noconn_0_142_0 vss and2_1
  Xgate_0_143_0 vdd predecode_0_15 predecode_1_8 x_0[143] y_b_noconn_0_143_0 vss and2_1
  Xgate_0_144_0 vdd predecode_0_0 predecode_1_9 x_0[144] y_b_noconn_0_144_0 vss and2_1
  Xgate_0_145_0 vdd predecode_0_1 predecode_1_9 x_0[145] y_b_noconn_0_145_0 vss and2_1
  Xgate_0_146_0 vdd predecode_0_2 predecode_1_9 x_0[146] y_b_noconn_0_146_0 vss and2_1
  Xgate_0_147_0 vdd predecode_0_3 predecode_1_9 x_0[147] y_b_noconn_0_147_0 vss and2_1
  Xgate_0_148_0 vdd predecode_0_4 predecode_1_9 x_0[148] y_b_noconn_0_148_0 vss and2_1
  Xgate_0_149_0 vdd predecode_0_5 predecode_1_9 x_0[149] y_b_noconn_0_149_0 vss and2_1
  Xgate_0_150_0 vdd predecode_0_6 predecode_1_9 x_0[150] y_b_noconn_0_150_0 vss and2_1
  Xgate_0_151_0 vdd predecode_0_7 predecode_1_9 x_0[151] y_b_noconn_0_151_0 vss and2_1
  Xgate_0_152_0 vdd predecode_0_8 predecode_1_9 x_0[152] y_b_noconn_0_152_0 vss and2_1
  Xgate_0_153_0 vdd predecode_0_9 predecode_1_9 x_0[153] y_b_noconn_0_153_0 vss and2_1
  Xgate_0_154_0 vdd predecode_0_10 predecode_1_9 x_0[154] y_b_noconn_0_154_0 vss and2_1
  Xgate_0_155_0 vdd predecode_0_11 predecode_1_9 x_0[155] y_b_noconn_0_155_0 vss and2_1
  Xgate_0_156_0 vdd predecode_0_12 predecode_1_9 x_0[156] y_b_noconn_0_156_0 vss and2_1
  Xgate_0_157_0 vdd predecode_0_13 predecode_1_9 x_0[157] y_b_noconn_0_157_0 vss and2_1
  Xgate_0_158_0 vdd predecode_0_14 predecode_1_9 x_0[158] y_b_noconn_0_158_0 vss and2_1
  Xgate_0_159_0 vdd predecode_0_15 predecode_1_9 x_0[159] y_b_noconn_0_159_0 vss and2_1
  Xgate_0_160_0 vdd predecode_0_0 predecode_1_10 x_0[160] y_b_noconn_0_160_0 vss and2_1
  Xgate_0_161_0 vdd predecode_0_1 predecode_1_10 x_0[161] y_b_noconn_0_161_0 vss and2_1
  Xgate_0_162_0 vdd predecode_0_2 predecode_1_10 x_0[162] y_b_noconn_0_162_0 vss and2_1
  Xgate_0_163_0 vdd predecode_0_3 predecode_1_10 x_0[163] y_b_noconn_0_163_0 vss and2_1
  Xgate_0_164_0 vdd predecode_0_4 predecode_1_10 x_0[164] y_b_noconn_0_164_0 vss and2_1
  Xgate_0_165_0 vdd predecode_0_5 predecode_1_10 x_0[165] y_b_noconn_0_165_0 vss and2_1
  Xgate_0_166_0 vdd predecode_0_6 predecode_1_10 x_0[166] y_b_noconn_0_166_0 vss and2_1
  Xgate_0_167_0 vdd predecode_0_7 predecode_1_10 x_0[167] y_b_noconn_0_167_0 vss and2_1
  Xgate_0_168_0 vdd predecode_0_8 predecode_1_10 x_0[168] y_b_noconn_0_168_0 vss and2_1
  Xgate_0_169_0 vdd predecode_0_9 predecode_1_10 x_0[169] y_b_noconn_0_169_0 vss and2_1
  Xgate_0_170_0 vdd predecode_0_10 predecode_1_10 x_0[170] y_b_noconn_0_170_0 vss and2_1
  Xgate_0_171_0 vdd predecode_0_11 predecode_1_10 x_0[171] y_b_noconn_0_171_0 vss and2_1
  Xgate_0_172_0 vdd predecode_0_12 predecode_1_10 x_0[172] y_b_noconn_0_172_0 vss and2_1
  Xgate_0_173_0 vdd predecode_0_13 predecode_1_10 x_0[173] y_b_noconn_0_173_0 vss and2_1
  Xgate_0_174_0 vdd predecode_0_14 predecode_1_10 x_0[174] y_b_noconn_0_174_0 vss and2_1
  Xgate_0_175_0 vdd predecode_0_15 predecode_1_10 x_0[175] y_b_noconn_0_175_0 vss and2_1
  Xgate_0_176_0 vdd predecode_0_0 predecode_1_11 x_0[176] y_b_noconn_0_176_0 vss and2_1
  Xgate_0_177_0 vdd predecode_0_1 predecode_1_11 x_0[177] y_b_noconn_0_177_0 vss and2_1
  Xgate_0_178_0 vdd predecode_0_2 predecode_1_11 x_0[178] y_b_noconn_0_178_0 vss and2_1
  Xgate_0_179_0 vdd predecode_0_3 predecode_1_11 x_0[179] y_b_noconn_0_179_0 vss and2_1
  Xgate_0_180_0 vdd predecode_0_4 predecode_1_11 x_0[180] y_b_noconn_0_180_0 vss and2_1
  Xgate_0_181_0 vdd predecode_0_5 predecode_1_11 x_0[181] y_b_noconn_0_181_0 vss and2_1
  Xgate_0_182_0 vdd predecode_0_6 predecode_1_11 x_0[182] y_b_noconn_0_182_0 vss and2_1
  Xgate_0_183_0 vdd predecode_0_7 predecode_1_11 x_0[183] y_b_noconn_0_183_0 vss and2_1
  Xgate_0_184_0 vdd predecode_0_8 predecode_1_11 x_0[184] y_b_noconn_0_184_0 vss and2_1
  Xgate_0_185_0 vdd predecode_0_9 predecode_1_11 x_0[185] y_b_noconn_0_185_0 vss and2_1
  Xgate_0_186_0 vdd predecode_0_10 predecode_1_11 x_0[186] y_b_noconn_0_186_0 vss and2_1
  Xgate_0_187_0 vdd predecode_0_11 predecode_1_11 x_0[187] y_b_noconn_0_187_0 vss and2_1
  Xgate_0_188_0 vdd predecode_0_12 predecode_1_11 x_0[188] y_b_noconn_0_188_0 vss and2_1
  Xgate_0_189_0 vdd predecode_0_13 predecode_1_11 x_0[189] y_b_noconn_0_189_0 vss and2_1
  Xgate_0_190_0 vdd predecode_0_14 predecode_1_11 x_0[190] y_b_noconn_0_190_0 vss and2_1
  Xgate_0_191_0 vdd predecode_0_15 predecode_1_11 x_0[191] y_b_noconn_0_191_0 vss and2_1
  Xgate_0_192_0 vdd predecode_0_0 predecode_1_12 x_0[192] y_b_noconn_0_192_0 vss and2_1
  Xgate_0_193_0 vdd predecode_0_1 predecode_1_12 x_0[193] y_b_noconn_0_193_0 vss and2_1
  Xgate_0_194_0 vdd predecode_0_2 predecode_1_12 x_0[194] y_b_noconn_0_194_0 vss and2_1
  Xgate_0_195_0 vdd predecode_0_3 predecode_1_12 x_0[195] y_b_noconn_0_195_0 vss and2_1
  Xgate_0_196_0 vdd predecode_0_4 predecode_1_12 x_0[196] y_b_noconn_0_196_0 vss and2_1
  Xgate_0_197_0 vdd predecode_0_5 predecode_1_12 x_0[197] y_b_noconn_0_197_0 vss and2_1
  Xgate_0_198_0 vdd predecode_0_6 predecode_1_12 x_0[198] y_b_noconn_0_198_0 vss and2_1
  Xgate_0_199_0 vdd predecode_0_7 predecode_1_12 x_0[199] y_b_noconn_0_199_0 vss and2_1
  Xgate_0_200_0 vdd predecode_0_8 predecode_1_12 x_0[200] y_b_noconn_0_200_0 vss and2_1
  Xgate_0_201_0 vdd predecode_0_9 predecode_1_12 x_0[201] y_b_noconn_0_201_0 vss and2_1
  Xgate_0_202_0 vdd predecode_0_10 predecode_1_12 x_0[202] y_b_noconn_0_202_0 vss and2_1
  Xgate_0_203_0 vdd predecode_0_11 predecode_1_12 x_0[203] y_b_noconn_0_203_0 vss and2_1
  Xgate_0_204_0 vdd predecode_0_12 predecode_1_12 x_0[204] y_b_noconn_0_204_0 vss and2_1
  Xgate_0_205_0 vdd predecode_0_13 predecode_1_12 x_0[205] y_b_noconn_0_205_0 vss and2_1