* Substrate SPICE library
* This is a generated file. Be careful when editing manually: this file may be overwritten.


.SUBCKT sky130_fd_sc_hs__and2_2 A B VGND VNB VPB VPWR X

  X0 a_31_74# B VPWR VPB sky130_fd_pr__pfet_01v8 l=0.150 nf=1 w=1.000

  X1 X a_31_74# VGND VNB sky130_fd_pr__nfet_01v8_lvt l=0.150 nf=1 w=0.740

  X2 X a_31_74# VPWR VPB sky130_fd_pr__pfet_01v8 l=0.150 nf=1 w=1.120

  X3 a_118_74# B VGND VNB sky130_fd_pr__nfet_01v8_lvt l=0.150 nf=1 w=0.740

  X4 a_31_74# A a_118_74# VNB sky130_fd_pr__nfet_01v8_lvt l=0.150 nf=1 w=0.740

  X5 VPWR A a_31_74# VPB sky130_fd_pr__pfet_01v8 l=0.150 nf=1 w=1.000

  X6 VPWR a_31_74# X VPB sky130_fd_pr__pfet_01v8 l=0.150 nf=1 w=1.120

  X7 VGND a_31_74# X VNB sky130_fd_pr__nfet_01v8_lvt l=0.150 nf=1 w=0.740


.ENDS sky130_fd_sc_hs__and2_2

.SUBCKT sky130_fd_sc_hs__and2_2_wrapper A B VGND VNB VPB VPWR X

  X0 A B VGND VNB VPB VPWR X sky130_fd_sc_hs__and2_2

.ENDS sky130_fd_sc_hs__and2_2_wrapper

.SUBCKT mos_w700_l150_m1_nf1_id1 d g s b

  X0 d g s b sky130_fd_pr__pfet_01v8 l=0.150 nf=1 w=0.700


.ENDS mos_w700_l150_m1_nf1_id1

.SUBCKT mos_w700_l150_m1_nf1_id0 d g s b

  X0 d g s b sky130_fd_pr__nfet_01v8 l=0.150 nf=1 w=0.700


.ENDS mos_w700_l150_m1_nf1_id0

.SUBCKT multi_finger_inv_3 vdd vss a y

  XMP0 y a vdd vdd mos_w700_l150_m1_nf1_id1
  XMP1 y a vdd vdd mos_w700_l150_m1_nf1_id1
  XMP2 y a vdd vdd mos_w700_l150_m1_nf1_id1
  XMP3 y a vdd vdd mos_w700_l150_m1_nf1_id1
  XMP4 y a vdd vdd mos_w700_l150_m1_nf1_id1
  XMP5 y a vdd vdd mos_w700_l150_m1_nf1_id1
  XMP6 y a vdd vdd mos_w700_l150_m1_nf1_id1
  XMN0 y a vss vss mos_w700_l150_m1_nf1_id0
  XMN1 y a vss vss mos_w700_l150_m1_nf1_id0
  XMN2 y a vss vss mos_w700_l150_m1_nf1_id0

.ENDS multi_finger_inv_3

.SUBCKT mos_w1200_l150_m1_nf1_id0 d g s b

  X0 d g s b sky130_fd_pr__nfet_01v8 l=0.150 nf=1 w=1.200


.ENDS mos_w1200_l150_m1_nf1_id0

.SUBCKT mos_w1200_l150_m1_nf1_id1 d g s b

  X0 d g s b sky130_fd_pr__pfet_01v8 l=0.150 nf=1 w=1.200


.ENDS mos_w1200_l150_m1_nf1_id1

.SUBCKT tristate_inv din en en_b din_b vdd vss

  Xmn_en din_b en nint vss mos_w1200_l150_m1_nf1_id0
  Xmn_pd nint din vss vss mos_w1200_l150_m1_nf1_id0
  Xmp_en din_b en_b pint vdd mos_w1200_l150_m1_nf1_id1
  Xmp_pu pint din vdd vdd mos_w1200_l150_m1_nf1_id1

.ENDS tristate_inv

.SUBCKT write_driver en en_b data data_b bl br vdd vss

  Xbldriver data_b en en_b bl vdd vss tristate_inv
  Xbrdriver data en en_b br vdd vss tristate_inv

.ENDS write_driver

.SUBCKT sky130_fd_sc_hs__inv_16 A VGND VNB VPB VPWR Y

  X0 VPWR A Y VPB sky130_fd_pr__pfet_01v8 l=0.150 nf=1 w=1.120

  X1 Y A VGND VNB sky130_fd_pr__nfet_01v8_lvt l=0.150 nf=1 w=0.740

  X2 Y A VPWR VPB sky130_fd_pr__pfet_01v8 l=0.150 nf=1 w=1.120

  X3 Y A VPWR VPB sky130_fd_pr__pfet_01v8 l=0.150 nf=1 w=1.120

  X4 VPWR A Y VPB sky130_fd_pr__pfet_01v8 l=0.150 nf=1 w=1.120

  X5 VGND A Y VNB sky130_fd_pr__nfet_01v8_lvt l=0.150 nf=1 w=0.740

  X6 Y A VPWR VPB sky130_fd_pr__pfet_01v8 l=0.150 nf=1 w=1.120

  X7 VGND A Y VNB sky130_fd_pr__nfet_01v8_lvt l=0.150 nf=1 w=0.740

  X8 VPWR A Y VPB sky130_fd_pr__pfet_01v8 l=0.150 nf=1 w=1.120

  X9 VGND A Y VNB sky130_fd_pr__nfet_01v8_lvt l=0.150 nf=1 w=0.740

  X10 Y A VPWR VPB sky130_fd_pr__pfet_01v8 l=0.150 nf=1 w=1.120

  X11 VGND A Y VNB sky130_fd_pr__nfet_01v8_lvt l=0.150 nf=1 w=0.740

  X12 VPWR A Y VPB sky130_fd_pr__pfet_01v8 l=0.150 nf=1 w=1.120

  X13 VGND A Y VNB sky130_fd_pr__nfet_01v8_lvt l=0.150 nf=1 w=0.740

  X14 Y A VGND VNB sky130_fd_pr__nfet_01v8_lvt l=0.150 nf=1 w=0.740

  X15 Y A VGND VNB sky130_fd_pr__nfet_01v8_lvt l=0.150 nf=1 w=0.740

  X16 VGND A Y VNB sky130_fd_pr__nfet_01v8_lvt l=0.150 nf=1 w=0.740

  X17 VPWR A Y VPB sky130_fd_pr__pfet_01v8 l=0.150 nf=1 w=1.120

  X18 VGND A Y VNB sky130_fd_pr__nfet_01v8_lvt l=0.150 nf=1 w=0.740

  X19 Y A VGND VNB sky130_fd_pr__nfet_01v8_lvt l=0.150 nf=1 w=0.740

  X20 Y A VGND VNB sky130_fd_pr__nfet_01v8_lvt l=0.150 nf=1 w=0.740

  X21 VPWR A Y VPB sky130_fd_pr__pfet_01v8 l=0.150 nf=1 w=1.120

  X22 Y A VGND VNB sky130_fd_pr__nfet_01v8_lvt l=0.150 nf=1 w=0.740

  X23 Y A VPWR VPB sky130_fd_pr__pfet_01v8 l=0.150 nf=1 w=1.120

  X24 Y A VPWR VPB sky130_fd_pr__pfet_01v8 l=0.150 nf=1 w=1.120

  X25 VGND A Y VNB sky130_fd_pr__nfet_01v8_lvt l=0.150 nf=1 w=0.740

  X26 Y A VGND VNB sky130_fd_pr__nfet_01v8_lvt l=0.150 nf=1 w=0.740

  X27 Y A VGND VNB sky130_fd_pr__nfet_01v8_lvt l=0.150 nf=1 w=0.740

  X28 VPWR A Y VPB sky130_fd_pr__pfet_01v8 l=0.150 nf=1 w=1.120

  X29 VPWR A Y VPB sky130_fd_pr__pfet_01v8 l=0.150 nf=1 w=1.120

  X30 Y A VPWR VPB sky130_fd_pr__pfet_01v8 l=0.150 nf=1 w=1.120

  X31 Y A VPWR VPB sky130_fd_pr__pfet_01v8 l=0.150 nf=1 w=1.120


.ENDS sky130_fd_sc_hs__inv_16

.SUBCKT mos_w1250_l150_m1_nf1_id1 d g s b

  X0 d g s b sky130_fd_pr__pfet_01v8 l=0.150 nf=1 w=1.250


.ENDS mos_w1250_l150_m1_nf1_id1

.SUBCKT mos_w500_l150_m1_nf1_id0 d g s b

  X0 d g s b sky130_fd_pr__nfet_01v8 l=0.150 nf=1 w=0.500


.ENDS mos_w500_l150_m1_nf1_id0

.SUBCKT folded_inv vdd vss a y

  XMP0 y a vdd vdd mos_w1250_l150_m1_nf1_id1
  XMN0 y a vss vss mos_w500_l150_m1_nf1_id0
  XMP1 y a vdd vdd mos_w1250_l150_m1_nf1_id1
  XMN1 y a vss vss mos_w500_l150_m1_nf1_id0

.ENDS folded_inv

.SUBCKT multi_finger_inv vdd vss a y

  XMP0 y a vdd vdd mos_w700_l150_m1_nf1_id1
  XMP1 y a vdd vdd mos_w700_l150_m1_nf1_id1
  XMP2 y a vdd vdd mos_w700_l150_m1_nf1_id1
  XMP3 y a vdd vdd mos_w700_l150_m1_nf1_id1
  XMP4 y a vdd vdd mos_w700_l150_m1_nf1_id1
  XMP5 y a vdd vdd mos_w700_l150_m1_nf1_id1
  XMP6 y a vdd vdd mos_w700_l150_m1_nf1_id1
  XMP7 y a vdd vdd mos_w700_l150_m1_nf1_id1
  XMP8 y a vdd vdd mos_w700_l150_m1_nf1_id1
  XMP9 y a vdd vdd mos_w700_l150_m1_nf1_id1
  XMN0 y a vss vss mos_w700_l150_m1_nf1_id0
  XMN1 y a vss vss mos_w700_l150_m1_nf1_id0
  XMN2 y a vss vss mos_w700_l150_m1_nf1_id0
  XMN3 y a vss vss mos_w700_l150_m1_nf1_id0

.ENDS multi_finger_inv

.SUBCKT multi_finger_inv_1 vdd vss a y

  XMP0 y a vdd vdd mos_w700_l150_m1_nf1_id1
  XMP1 y a vdd vdd mos_w700_l150_m1_nf1_id1
  XMP2 y a vdd vdd mos_w700_l150_m1_nf1_id1
  XMP3 y a vdd vdd mos_w700_l150_m1_nf1_id1
  XMP4 y a vdd vdd mos_w700_l150_m1_nf1_id1
  XMP5 y a vdd vdd mos_w700_l150_m1_nf1_id1
  XMP6 y a vdd vdd mos_w700_l150_m1_nf1_id1
  XMN0 y a vss vss mos_w700_l150_m1_nf1_id0
  XMN1 y a vss vss mos_w700_l150_m1_nf1_id0
  XMN2 y a vss vss mos_w700_l150_m1_nf1_id0

.ENDS multi_finger_inv_1

.SUBCKT multi_finger_inv_2 vdd vss a y

  XMP0 y a vdd vdd mos_w700_l150_m1_nf1_id1
  XMP1 y a vdd vdd mos_w700_l150_m1_nf1_id1
  XMP2 y a vdd vdd mos_w700_l150_m1_nf1_id1
  XMP3 y a vdd vdd mos_w700_l150_m1_nf1_id1
  XMP4 y a vdd vdd mos_w700_l150_m1_nf1_id1
  XMP5 y a vdd vdd mos_w700_l150_m1_nf1_id1
  XMP6 y a vdd vdd mos_w700_l150_m1_nf1_id1
  XMP7 y a vdd vdd mos_w700_l150_m1_nf1_id1
  XMP8 y a vdd vdd mos_w700_l150_m1_nf1_id1
  XMP9 y a vdd vdd mos_w700_l150_m1_nf1_id1
  XMP10 y a vdd vdd mos_w700_l150_m1_nf1_id1
  XMP11 y a vdd vdd mos_w700_l150_m1_nf1_id1
  XMN0 y a vss vss mos_w700_l150_m1_nf1_id0
  XMN1 y a vss vss mos_w700_l150_m1_nf1_id0
  XMN2 y a vss vss mos_w700_l150_m1_nf1_id0
  XMN3 y a vss vss mos_w700_l150_m1_nf1_id0
  XMN4 y a vss vss mos_w700_l150_m1_nf1_id0

.ENDS multi_finger_inv_2

.SUBCKT decoder_stage_1 vdd vss y y_b predecode_0_0

  Xgate_0_0_0 vdd vss predecode_0_0 x_0 folded_inv
  Xgate_1_0_0 vdd vss x_0 x_1 multi_finger_inv
  Xgate_2_0_0 vdd vss x_1 y_b multi_finger_inv_1
  Xgate_2_0_1 vdd vss x_1 y_b multi_finger_inv_1
  Xgate_2_0_2 vdd vss x_1 y_b multi_finger_inv_1
  Xgate_2_0_3 vdd vss x_1 y_b multi_finger_inv_1
  Xgate_3_0_0 vdd vss y_b y multi_finger_inv_2
  Xgate_3_0_1 vdd vss y_b y multi_finger_inv_2
  Xgate_3_0_2 vdd vss y_b y multi_finger_inv_2
  Xgate_3_0_3 vdd vss y_b y multi_finger_inv_2
  Xgate_3_0_4 vdd vss y_b y multi_finger_inv_2
  Xgate_3_0_5 vdd vss y_b y multi_finger_inv_2

.ENDS decoder_stage_1

.SUBCKT sram_sp_hstrap BR VDD VSS BL VNB VPB

  X0 BL VNB BL VNB sky130_fd_pr__special_nfet_pass l=0.140 nf=1 w=0.140

  X1 BL VNB BL VNB sky130_fd_pr__special_nfet_pass l=0.140 nf=1 w=0.140


.ENDS sram_sp_hstrap

.SUBCKT mos_w3080_l150_m1_nf1_id1 d g s b

  X0 d g s b sky130_fd_pr__pfet_01v8 l=0.150 nf=1 w=3.080


.ENDS mos_w3080_l150_m1_nf1_id1

.SUBCKT mos_w1230_l150_m1_nf1_id0 d g s b

  X0 d g s b sky130_fd_pr__nfet_01v8 l=0.150 nf=1 w=1.230


.ENDS mos_w1230_l150_m1_nf1_id0

.SUBCKT folded_inv_4 vdd vss a y

  XMP0 y a vdd vdd mos_w3080_l150_m1_nf1_id1
  XMN0 y a vss vss mos_w1230_l150_m1_nf1_id0
  XMP1 y a vdd vdd mos_w3080_l150_m1_nf1_id1
  XMN1 y a vss vss mos_w1230_l150_m1_nf1_id0

.ENDS folded_inv_4

.SUBCKT sram_sp_cell BL BR VDD VSS WL VNB VPB

  X0 QB WL BR VNB sky130_fd_pr__special_nfet_pass l=0.150 nf=1 w=0.140

  X1 Q QB VSS VNB sky130_fd_pr__special_nfet_latch l=0.150 nf=1 w=0.210

  X2 BL WL Q VNB sky130_fd_pr__special_nfet_pass l=0.150 nf=1 w=0.140

  X3 Q WL Q VPB sky130_fd_pr__special_pfet_pass l=0.025 nf=1 w=0.140

  X4 QB WL QB VPB sky130_fd_pr__special_pfet_pass l=0.025 nf=1 w=0.140

  X5 VDD Q QB VPB sky130_fd_pr__special_pfet_pass l=0.150 nf=1 w=0.140

  X6 Q QB VDD VPB sky130_fd_pr__special_pfet_pass l=0.150 nf=1 w=0.140

  X7 VSS Q QB VNB sky130_fd_pr__special_nfet_latch l=0.150 nf=1 w=0.210


.ENDS sram_sp_cell

.SUBCKT sky130_fd_sc_hs__inv_2 A VGND VNB VPB VPWR Y

  X0 Y A VPWR VPB sky130_fd_pr__pfet_01v8 l=0.150 nf=1 w=1.120

  X1 VPWR A Y VPB sky130_fd_pr__pfet_01v8 l=0.150 nf=1 w=1.120

  X2 VGND A Y VNB sky130_fd_pr__nfet_01v8_lvt l=0.150 nf=1 w=0.740

  X3 Y A VGND VNB sky130_fd_pr__nfet_01v8_lvt l=0.150 nf=1 w=0.740


.ENDS sky130_fd_sc_hs__inv_2

.SUBCKT sky130_fd_sc_hs__inv_2_wrapper A VGND VNB VPB VPWR Y

  X0 A VGND VNB VPB VPWR Y sky130_fd_sc_hs__inv_2

.ENDS sky130_fd_sc_hs__inv_2_wrapper

.SUBCKT sky130_fd_sc_hs__inv_4 A VGND VNB VPB VPWR Y

  X0 VGND A Y VNB sky130_fd_pr__nfet_01v8_lvt l=0.150 nf=1 w=0.740

  X1 VPWR A Y VPB sky130_fd_pr__pfet_01v8 l=0.150 nf=1 w=1.120

  X2 VPWR A Y VPB sky130_fd_pr__pfet_01v8 l=0.150 nf=1 w=1.120

  X3 VGND A Y VNB sky130_fd_pr__nfet_01v8_lvt l=0.150 nf=1 w=0.740

  X4 Y A VGND VNB sky130_fd_pr__nfet_01v8_lvt l=0.150 nf=1 w=0.740

  X5 Y A VPWR VPB sky130_fd_pr__pfet_01v8 l=0.150 nf=1 w=1.120

  X6 Y A VPWR VPB sky130_fd_pr__pfet_01v8 l=0.150 nf=1 w=1.120

  X7 Y A VGND VNB sky130_fd_pr__nfet_01v8_lvt l=0.150 nf=1 w=0.740


.ENDS sky130_fd_sc_hs__inv_4

.SUBCKT sky130_fd_sc_hs__inv_4_wrapper A VGND VNB VPB VPWR Y

  X0 A VGND VNB VPB VPWR Y sky130_fd_sc_hs__inv_4

.ENDS sky130_fd_sc_hs__inv_4_wrapper

.SUBCKT inv_chain_9 din dout vdd vss

  Xinv0 din vss vss vdd vdd x[0] sky130_fd_sc_hs__inv_2_wrapper
  Xinv1 x[0] vss vss vdd vdd x[1] sky130_fd_sc_hs__inv_2_wrapper
  Xinv2 x[1] vss vss vdd vdd x[2] sky130_fd_sc_hs__inv_2_wrapper
  Xinv3 x[2] vss vss vdd vdd x[3] sky130_fd_sc_hs__inv_2_wrapper
  Xinv4 x[3] vss vss vdd vdd x[4] sky130_fd_sc_hs__inv_2_wrapper
  Xinv5 x[4] vss vss vdd vdd x[5] sky130_fd_sc_hs__inv_2_wrapper
  Xinv6 x[5] vss vss vdd vdd x[6] sky130_fd_sc_hs__inv_2_wrapper
  Xinv7 x[6] vss vss vdd vdd x[7] sky130_fd_sc_hs__inv_2_wrapper
  Xinv8 x[7] vss vss vdd vdd dout sky130_fd_sc_hs__inv_4_wrapper

.ENDS inv_chain_9

.SUBCKT mos_w800_l150_m1_nf1_id0 d g s b

  X0 d g s b sky130_fd_pr__nfet_01v8 l=0.150 nf=1 w=0.800


.ENDS mos_w800_l150_m1_nf1_id0

.SUBCKT mos_w1700_l150_m1_nf1_id1 d g s b

  X0 d g s b sky130_fd_pr__pfet_01v8 l=0.150 nf=1 w=1.700


.ENDS mos_w1700_l150_m1_nf1_id1

.SUBCKT column_mos vdd vss bl

  Xgate_nmos vss bl vss vss mos_w800_l150_m1_nf1_id0
  Xdrain_nmos bl vss vss vss mos_w1200_l150_m1_nf1_id0
  Xdrain_pmos bl vdd vdd vdd mos_w1700_l150_m1_nf1_id1

.ENDS column_mos

.SUBCKT replica_column_mos vdd vss bl

  Xunit0 vdd vss bl column_mos

.ENDS replica_column_mos

.SUBCKT sky130_fd_sc_hs__dfrbp_2 CLK D RESET_B VGND VNB VPB VPWR Q Q_N

  X0 a_1800_291# a_1586_149# VPWR VPB sky130_fd_pr__pfet_01v8 l=0.150 nf=1 w=0.420

  X1 VGND CLK a_728_331# VNB sky130_fd_pr__nfet_01v8_lvt l=0.150 nf=1 w=0.740

  X2 Q a_2363_352# VGND VNB sky130_fd_pr__nfet_01v8_lvt l=0.150 nf=1 w=0.740

  X3 VPWR CLK a_728_331# VPB sky130_fd_pr__pfet_01v8 l=0.150 nf=1 w=1.120

  X4 a_1499_149# a_728_331# a_1586_149# VNB sky130_fd_pr__nfet_01v8_lvt l=0.150 nf=1 w=0.420

  X5 a_536_81# a_331_392# a_614_81# VNB sky130_fd_pr__nfet_01v8_lvt l=0.150 nf=1 w=0.420

  X6 a_156_74# RESET_B VGND VNB sky130_fd_pr__nfet_01v8_lvt l=0.150 nf=1 w=0.420

  X7 a_298_294# a_818_418# a_614_81# VNB sky130_fd_pr__nfet_01v8_lvt l=0.150 nf=1 w=0.420

  X8 a_70_74# a_728_331# a_298_294# VNB sky130_fd_pr__nfet_01v8_lvt l=0.150 nf=1 w=0.420

  X9 a_331_392# a_728_331# a_1586_149# VPB sky130_fd_pr__pfet_01v8 l=0.150 nf=1 w=1.000

  X10 a_70_74# D a_156_74# VNB sky130_fd_pr__nfet_01v8_lvt l=0.150 nf=1 w=0.420

  X11 a_818_418# a_728_331# VGND VNB sky130_fd_pr__nfet_01v8_lvt l=0.150 nf=1 w=0.740

  X12 a_818_418# a_728_331# VPWR VPB sky130_fd_pr__pfet_01v8 l=0.150 nf=1 w=1.120

  X13 a_1586_149# a_818_418# a_1755_389# VPB sky130_fd_pr__pfet_01v8 l=0.150 nf=1 w=0.420

  X14 Q_N a_1586_149# VPWR VPB sky130_fd_pr__pfet_01v8 l=0.150 nf=1 w=1.120

  X15 a_298_294# a_818_418# a_70_74# VPB sky130_fd_pr__pfet_01v8 l=0.150 nf=1 w=0.420

  X16 VGND RESET_B a_536_81# VNB sky130_fd_pr__nfet_01v8_lvt l=0.150 nf=1 w=0.420

  X17 a_1755_389# a_1800_291# VPWR VPB sky130_fd_pr__pfet_01v8 l=0.150 nf=1 w=0.420

  X18 a_1586_149# a_818_418# a_331_392# VNB sky130_fd_pr__nfet_01v8_lvt l=0.150 nf=1 w=0.740

  X19 Q a_2363_352# VPWR VPB sky130_fd_pr__pfet_01v8 l=0.150 nf=1 w=1.120

  X20 VGND a_1586_149# Q_N VNB sky130_fd_pr__nfet_01v8_lvt l=0.150 nf=1 w=0.740

  X21 VGND a_1586_149# a_2363_352# VNB sky130_fd_pr__nfet_01v8_lvt l=0.150 nf=1 w=0.640

  X22 VPWR a_298_294# a_331_392# VPB sky130_fd_pr__pfet_01v8 l=0.150 nf=1 w=1.000

  X23 a_298_294# RESET_B VPWR VPB sky130_fd_pr__pfet_01v8 l=0.150 nf=1 w=0.420

  X24 a_1499_149# a_1800_291# VGND VNB sky130_fd_pr__nfet_01v8_lvt l=0.150 nf=1 w=0.420

  X25 VPWR a_331_392# a_683_485# VPB sky130_fd_pr__pfet_01v8 l=0.150 nf=1 w=0.420

  X26 VPWR D a_70_74# VPB sky130_fd_pr__pfet_01v8 l=0.150 nf=1 w=0.420

  X27 VPWR RESET_B a_1800_291# VPB sky130_fd_pr__pfet_01v8 l=0.150 nf=1 w=0.420

  X28 a_1974_74# a_1586_149# a_1800_291# VNB sky130_fd_pr__nfet_01v8_lvt l=0.150 nf=1 w=0.420

  X29 a_70_74# RESET_B VPWR VPB sky130_fd_pr__pfet_01v8 l=0.150 nf=1 w=0.420

  X30 Q_N a_1586_149# VGND VNB sky130_fd_pr__nfet_01v8_lvt l=0.150 nf=1 w=0.740

  X31 VPWR a_1586_149# a_2363_352# VPB sky130_fd_pr__pfet_01v8 l=0.150 nf=1 w=1.000

  X32 VGND a_2363_352# Q VNB sky130_fd_pr__nfet_01v8_lvt l=0.150 nf=1 w=0.740

  X33 VPWR a_1586_149# Q_N VPB sky130_fd_pr__pfet_01v8 l=0.150 nf=1 w=1.120

  X34 VGND RESET_B a_1974_74# VNB sky130_fd_pr__nfet_01v8_lvt l=0.150 nf=1 w=0.420

  X35 a_683_485# a_728_331# a_298_294# VPB sky130_fd_pr__pfet_01v8 l=0.150 nf=1 w=0.420

  X36 VGND a_298_294# a_331_392# VNB sky130_fd_pr__nfet_01v8_lvt l=0.150 nf=1 w=0.740

  X37 VPWR a_2363_352# Q VPB sky130_fd_pr__pfet_01v8 l=0.150 nf=1 w=1.120


.ENDS sky130_fd_sc_hs__dfrbp_2

.SUBCKT sky130_fd_sc_hs__dfrbp_2_wrapper CLK D RESET_B VGND VNB VPB VPWR Q Q_N

  X0 CLK D RESET_B VGND VNB VPB VPWR Q Q_N sky130_fd_sc_hs__dfrbp_2

.ENDS sky130_fd_sc_hs__dfrbp_2_wrapper

.SUBCKT dff_array_8 vdd vss clk rb d[0] d[1] d[2] d[3] d[4] d[5] d[6] d[7] q[0] q[1] q[2] q[3] q[4] q[5] q[6] q[7] qn[0] qn[1] qn[2] qn[3] qn[4] qn[5] qn[6] qn[7]

  Xdff_0 clk d[0] rb vss vss vdd vdd q[0] qn[0] sky130_fd_sc_hs__dfrbp_2_wrapper
  Xdff_1 clk d[1] rb vss vss vdd vdd q[1] qn[1] sky130_fd_sc_hs__dfrbp_2_wrapper
  Xdff_2 clk d[2] rb vss vss vdd vdd q[2] qn[2] sky130_fd_sc_hs__dfrbp_2_wrapper
  Xdff_3 clk d[3] rb vss vss vdd vdd q[3] qn[3] sky130_fd_sc_hs__dfrbp_2_wrapper
  Xdff_4 clk d[4] rb vss vss vdd vdd q[4] qn[4] sky130_fd_sc_hs__dfrbp_2_wrapper
  Xdff_5 clk d[5] rb vss vss vdd vdd q[5] qn[5] sky130_fd_sc_hs__dfrbp_2_wrapper
  Xdff_6 clk d[6] rb vss vss vdd vdd q[6] qn[6] sky130_fd_sc_hs__dfrbp_2_wrapper
  Xdff_7 clk d[7] rb vss vss vdd vdd q[7] qn[7] sky130_fd_sc_hs__dfrbp_2_wrapper

.ENDS dff_array_8

.SUBCKT multi_finger_inv_8 vdd vss a y

  XMP0 y a vdd vdd mos_w700_l150_m1_nf1_id1
  XMP1 y a vdd vdd mos_w700_l150_m1_nf1_id1
  XMP2 y a vdd vdd mos_w700_l150_m1_nf1_id1
  XMP3 y a vdd vdd mos_w700_l150_m1_nf1_id1
  XMP4 y a vdd vdd mos_w700_l150_m1_nf1_id1
  XMP5 y a vdd vdd mos_w700_l150_m1_nf1_id1
  XMP6 y a vdd vdd mos_w700_l150_m1_nf1_id1
  XMP7 y a vdd vdd mos_w700_l150_m1_nf1_id1
  XMP8 y a vdd vdd mos_w700_l150_m1_nf1_id1
  XMP9 y a vdd vdd mos_w700_l150_m1_nf1_id1
  XMP10 y a vdd vdd mos_w700_l150_m1_nf1_id1
  XMP11 y a vdd vdd mos_w700_l150_m1_nf1_id1
  XMP12 y a vdd vdd mos_w700_l150_m1_nf1_id1
  XMP13 y a vdd vdd mos_w700_l150_m1_nf1_id1
  XMP14 y a vdd vdd mos_w700_l150_m1_nf1_id1
  XMP15 y a vdd vdd mos_w700_l150_m1_nf1_id1
  XMP16 y a vdd vdd mos_w700_l150_m1_nf1_id1
  XMP17 y a vdd vdd mos_w700_l150_m1_nf1_id1
  XMP18 y a vdd vdd mos_w700_l150_m1_nf1_id1
  XMP19 y a vdd vdd mos_w700_l150_m1_nf1_id1
  XMP20 y a vdd vdd mos_w700_l150_m1_nf1_id1
  XMP21 y a vdd vdd mos_w700_l150_m1_nf1_id1
  XMP22 y a vdd vdd mos_w700_l150_m1_nf1_id1
  XMP23 y a vdd vdd mos_w700_l150_m1_nf1_id1
  XMP24 y a vdd vdd mos_w700_l150_m1_nf1_id1
  XMP25 y a vdd vdd mos_w700_l150_m1_nf1_id1
  XMP26 y a vdd vdd mos_w700_l150_m1_nf1_id1
  XMP27 y a vdd vdd mos_w700_l150_m1_nf1_id1
  XMP28 y a vdd vdd mos_w700_l150_m1_nf1_id1
  XMP29 y a vdd vdd mos_w700_l150_m1_nf1_id1
  XMN0 y a vss vss mos_w700_l150_m1_nf1_id0
  XMN1 y a vss vss mos_w700_l150_m1_nf1_id0
  XMN2 y a vss vss mos_w700_l150_m1_nf1_id0
  XMN3 y a vss vss mos_w700_l150_m1_nf1_id0
  XMN4 y a vss vss mos_w700_l150_m1_nf1_id0
  XMN5 y a vss vss mos_w700_l150_m1_nf1_id0
  XMN6 y a vss vss mos_w700_l150_m1_nf1_id0
  XMN7 y a vss vss mos_w700_l150_m1_nf1_id0
  XMN8 y a vss vss mos_w700_l150_m1_nf1_id0
  XMN9 y a vss vss mos_w700_l150_m1_nf1_id0
  XMN10 y a vss vss mos_w700_l150_m1_nf1_id0
  XMN11 y a vss vss mos_w700_l150_m1_nf1_id0

.ENDS multi_finger_inv_8

.SUBCKT inv_chain_16 din dout vdd vss

  Xinv0 din vss vss vdd vdd x[0] sky130_fd_sc_hs__inv_2_wrapper
  Xinv1 x[0] vss vss vdd vdd x[1] sky130_fd_sc_hs__inv_2_wrapper
  Xinv2 x[1] vss vss vdd vdd x[2] sky130_fd_sc_hs__inv_2_wrapper
  Xinv3 x[2] vss vss vdd vdd x[3] sky130_fd_sc_hs__inv_2_wrapper
  Xinv4 x[3] vss vss vdd vdd x[4] sky130_fd_sc_hs__inv_2_wrapper
  Xinv5 x[4] vss vss vdd vdd x[5] sky130_fd_sc_hs__inv_2_wrapper
  Xinv6 x[5] vss vss vdd vdd x[6] sky130_fd_sc_hs__inv_2_wrapper
  Xinv7 x[6] vss vss vdd vdd x[7] sky130_fd_sc_hs__inv_2_wrapper
  Xinv8 x[7] vss vss vdd vdd x[8] sky130_fd_sc_hs__inv_2_wrapper
  Xinv9 x[8] vss vss vdd vdd x[9] sky130_fd_sc_hs__inv_2_wrapper
  Xinv10 x[9] vss vss vdd vdd x[10] sky130_fd_sc_hs__inv_2_wrapper
  Xinv11 x[10] vss vss vdd vdd x[11] sky130_fd_sc_hs__inv_2_wrapper
  Xinv12 x[11] vss vss vdd vdd x[12] sky130_fd_sc_hs__inv_2_wrapper
  Xinv13 x[12] vss vss vdd vdd x[13] sky130_fd_sc_hs__inv_2_wrapper
  Xinv14 x[13] vss vss vdd vdd x[14] sky130_fd_sc_hs__inv_2_wrapper
  Xinv15 x[14] vss vss vdd vdd dout sky130_fd_sc_hs__inv_4_wrapper

.ENDS inv_chain_16

.SUBCKT sram_sp_cell_wrapper BL BR VDD VSS WL VNB VPB

  X0 BL BR VDD VSS WL VNB VPB sram_sp_cell

.ENDS sram_sp_cell_wrapper

.SUBCKT sram_sp_colend BR VDD VSS BL VNB VPB

  X0 BR VNB BR VNB sky130_fd_pr__special_nfet_pass l=0.140 nf=1 w=0.140


.ENDS sram_sp_colend

.SUBCKT sram_sp_colend_wrapper BR VDD VSS BL VNB VPB

  X0 BR VDD VSS BL VNB VPB sram_sp_colend

.ENDS sram_sp_colend_wrapper

.SUBCKT sram_sp_hstrap_wrapper BR VDD VSS BL VNB VPB

  X0 BR VDD VSS BL VNB VPB sram_sp_hstrap

.ENDS sram_sp_hstrap_wrapper

.SUBCKT sp_cell_array vdd vss dummy_bl dummy_br bl[0] bl[1] bl[2] bl[3] bl[4] bl[5] bl[6] bl[7] bl[8] bl[9] bl[10] bl[11] bl[12] bl[13] bl[14] bl[15] bl[16] bl[17] bl[18] bl[19] bl[20] bl[21] bl[22] bl[23] bl[24] bl[25] bl[26] bl[27] bl[28] bl[29] bl[30] bl[31] bl[32] bl[33] bl[34] bl[35] bl[36] bl[37] bl[38] bl[39] bl[40] bl[41] bl[42] bl[43] bl[44] bl[45] bl[46] bl[47] bl[48] bl[49] bl[50] bl[51] bl[52] bl[53] bl[54] bl[55] bl[56] bl[57] bl[58] bl[59] bl[60] bl[61] bl[62] bl[63] bl[64] bl[65] bl[66] bl[67] bl[68] bl[69] bl[70] bl[71] bl[72] bl[73] bl[74] bl[75] bl[76] bl[77] bl[78] bl[79] bl[80] bl[81] bl[82] bl[83] bl[84] bl[85] bl[86] bl[87] bl[88] bl[89] bl[90] bl[91] bl[92] bl[93] bl[94] bl[95] bl[96] bl[97] bl[98] bl[99] bl[100] bl[101] bl[102] bl[103] bl[104] bl[105] bl[106] bl[107] bl[108] bl[109] bl[110] bl[111] bl[112] bl[113] bl[114] bl[115] bl[116] bl[117] bl[118] bl[119] bl[120] bl[121] bl[122] bl[123] bl[124] bl[125] bl[126] bl[127] br[0] br[1] br[2] br[3] br[4] br[5] br[6] br[7] br[8] br[9] br[10] br[11] br[12] br[13] br[14] br[15] br[16] br[17] br[18] br[19] br[20] br[21] br[22] br[23] br[24] br[25] br[26] br[27] br[28] br[29] br[30] br[31] br[32] br[33] br[34] br[35] br[36] br[37] br[38] br[39] br[40] br[41] br[42] br[43] br[44] br[45] br[46] br[47] br[48] br[49] br[50] br[51] br[52] br[53] br[54] br[55] br[56] br[57] br[58] br[59] br[60] br[61] br[62] br[63] br[64] br[65] br[66] br[67] br[68] br[69] br[70] br[71] br[72] br[73] br[74] br[75] br[76] br[77] br[78] br[79] br[80] br[81] br[82] br[83] br[84] br[85] br[86] br[87] br[88] br[89] br[90] br[91] br[92] br[93] br[94] br[95] br[96] br[97] br[98] br[99] br[100] br[101] br[102] br[103] br[104] br[105] br[106] br[107] br[108] br[109] br[110] br[111] br[112] br[113] br[114] br[115] br[116] br[117] br[118] br[119] br[120] br[121] br[122] br[123] br[124] br[125] br[126] br[127] wl[0] wl[1] wl[2] wl[3] wl[4] wl[5] wl[6] wl[7] wl[8] wl[9] wl[10] wl[11] wl[12] wl[13] wl[14] wl[15]

  Xcell_0_0 bl[0] br[0] vdd vss wl[0] vss vdd sram_sp_cell_wrapper
  Xcell_0_1 bl[1] br[1] vdd vss wl[0] vss vdd sram_sp_cell_wrapper
  Xcell_0_2 bl[2] br[2] vdd vss wl[0] vss vdd sram_sp_cell_wrapper
  Xcell_0_3 bl[3] br[3] vdd vss wl[0] vss vdd sram_sp_cell_wrapper
  Xcell_0_4 bl[4] br[4] vdd vss wl[0] vss vdd sram_sp_cell_wrapper
  Xcell_0_5 bl[5] br[5] vdd vss wl[0] vss vdd sram_sp_cell_wrapper
  Xcell_0_6 bl[6] br[6] vdd vss wl[0] vss vdd sram_sp_cell_wrapper
  Xcell_0_7 bl[7] br[7] vdd vss wl[0] vss vdd sram_sp_cell_wrapper
  Xcell_0_8 bl[8] br[8] vdd vss wl[0] vss vdd sram_sp_cell_wrapper
  Xcell_0_9 bl[9] br[9] vdd vss wl[0] vss vdd sram_sp_cell_wrapper
  Xcell_0_10 bl[10] br[10] vdd vss wl[0] vss vdd sram_sp_cell_wrapper
  Xcell_0_11 bl[11] br[11] vdd vss wl[0] vss vdd sram_sp_cell_wrapper
  Xcell_0_12 bl[12] br[12] vdd vss wl[0] vss vdd sram_sp_cell_wrapper
  Xcell_0_13 bl[13] br[13] vdd vss wl[0] vss vdd sram_sp_cell_wrapper
  Xcell_0_14 bl[14] br[14] vdd vss wl[0] vss vdd sram_sp_cell_wrapper
  Xcell_0_15 bl[15] br[15] vdd vss wl[0] vss vdd sram_sp_cell_wrapper
  Xcell_0_16 bl[16] br[16] vdd vss wl[0] vss vdd sram_sp_cell_wrapper
  Xcell_0_17 bl[17] br[17] vdd vss wl[0] vss vdd sram_sp_cell_wrapper
  Xcell_0_18 bl[18] br[18] vdd vss wl[0] vss vdd sram_sp_cell_wrapper
  Xcell_0_19 bl[19] br[19] vdd vss wl[0] vss vdd sram_sp_cell_wrapper
  Xcell_0_20 bl[20] br[20] vdd vss wl[0] vss vdd sram_sp_cell_wrapper
  Xcell_0_21 bl[21] br[21] vdd vss wl[0] vss vdd sram_sp_cell_wrapper
  Xcell_0_22 bl[22] br[22] vdd vss wl[0] vss vdd sram_sp_cell_wrapper
  Xcell_0_23 bl[23] br[23] vdd vss wl[0] vss vdd sram_sp_cell_wrapper
  Xcell_0_24 bl[24] br[24] vdd vss wl[0] vss vdd sram_sp_cell_wrapper
  Xcell_0_25 bl[25] br[25] vdd vss wl[0] vss vdd sram_sp_cell_wrapper
  Xcell_0_26 bl[26] br[26] vdd vss wl[0] vss vdd sram_sp_cell_wrapper
  Xcell_0_27 bl[27] br[27] vdd vss wl[0] vss vdd sram_sp_cell_wrapper
  Xcell_0_28 bl[28] br[28] vdd vss wl[0] vss vdd sram_sp_cell_wrapper
  Xcell_0_29 bl[29] br[29] vdd vss wl[0] vss vdd sram_sp_cell_wrapper
  Xcell_0_30 bl[30] br[30] vdd vss wl[0] vss vdd sram_sp_cell_wrapper
  Xcell_0_31 bl[31] br[31] vdd vss wl[0] vss vdd sram_sp_cell_wrapper
  Xcell_0_32 bl[32] br[32] vdd vss wl[0] vss vdd sram_sp_cell_wrapper
  Xcell_0_33 bl[33] br[33] vdd vss wl[0] vss vdd sram_sp_cell_wrapper
  Xcell_0_34 bl[34] br[34] vdd vss wl[0] vss vdd sram_sp_cell_wrapper
  Xcell_0_35 bl[35] br[35] vdd vss wl[0] vss vdd sram_sp_cell_wrapper
  Xcell_0_36 bl[36] br[36] vdd vss wl[0] vss vdd sram_sp_cell_wrapper
  Xcell_0_37 bl[37] br[37] vdd vss wl[0] vss vdd sram_sp_cell_wrapper
  Xcell_0_38 bl[38] br[38] vdd vss wl[0] vss vdd sram_sp_cell_wrapper
  Xcell_0_39 bl[39] br[39] vdd vss wl[0] vss vdd sram_sp_cell_wrapper
  Xcell_0_40 bl[40] br[40] vdd vss wl[0] vss vdd sram_sp_cell_wrapper
  Xcell_0_41 bl[41] br[41] vdd vss wl[0] vss vdd sram_sp_cell_wrapper
  Xcell_0_42 bl[42] br[42] vdd vss wl[0] vss vdd sram_sp_cell_wrapper
  Xcell_0_43 bl[43] br[43] vdd vss wl[0] vss vdd sram_sp_cell_wrapper
  Xcell_0_44 bl[44] br[44] vdd vss wl[0] vss vdd sram_sp_cell_wrapper
  Xcell_0_45 bl[45] br[45] vdd vss wl[0] vss vdd sram_sp_cell_wrapper
  Xcell_0_46 bl[46] br[46] vdd vss wl[0] vss vdd sram_sp_cell_wrapper
  Xcell_0_47 bl[47] br[47] vdd vss wl[0] vss vdd sram_sp_cell_wrapper
  Xcell_0_48 bl[48] br[48] vdd vss wl[0] vss vdd sram_sp_cell_wrapper
  Xcell_0_49 bl[49] br[49] vdd vss wl[0] vss vdd sram_sp_cell_wrapper
  Xcell_0_50 bl[50] br[50] vdd vss wl[0] vss vdd sram_sp_cell_wrapper
  Xcell_0_51 bl[51] br[51] vdd vss wl[0] vss vdd sram_sp_cell_wrapper
  Xcell_0_52 bl[52] br[52] vdd vss wl[0] vss vdd sram_sp_cell_wrapper
  Xcell_0_53 bl[53] br[53] vdd vss wl[0] vss vdd sram_sp_cell_wrapper
  Xcell_0_54 bl[54] br[54] vdd vss wl[0] vss vdd sram_sp_cell_wrapper
  Xcell_0_55 bl[55] br[55] vdd vss wl[0] vss vdd sram_sp_cell_wrapper
  Xcell_0_56 bl[56] br[56] vdd vss wl[0] vss vdd sram_sp_cell_wrapper
  Xcell_0_57 bl[57] br[57] vdd vss wl[0] vss vdd sram_sp_cell_wrapper
  Xcell_0_58 bl[58] br[58] vdd vss wl[0] vss vdd sram_sp_cell_wrapper
  Xcell_0_59 bl[59] br[59] vdd vss wl[0] vss vdd sram_sp_cell_wrapper
  Xcell_0_60 bl[60] br[60] vdd vss wl[0] vss vdd sram_sp_cell_wrapper
  Xcell_0_61 bl[61] br[61] vdd vss wl[0] vss vdd sram_sp_cell_wrapper
  Xcell_0_62 bl[62] br[62] vdd vss wl[0] vss vdd sram_sp_cell_wrapper
  Xcell_0_63 bl[63] br[63] vdd vss wl[0] vss vdd sram_sp_cell_wrapper
  Xcell_0_64 bl[64] br[64] vdd vss wl[0] vss vdd sram_sp_cell_wrapper
  Xcell_0_65 bl[65] br[65] vdd vss wl[0] vss vdd sram_sp_cell_wrapper
  Xcell_0_66 bl[66] br[66] vdd vss wl[0] vss vdd sram_sp_cell_wrapper
  Xcell_0_67 bl[67] br[67] vdd vss wl[0] vss vdd sram_sp_cell_wrapper
  Xcell_0_68 bl[68] br[68] vdd vss wl[0] vss vdd sram_sp_cell_wrapper
  Xcell_0_69 bl[69] br[69] vdd vss wl[0] vss vdd sram_sp_cell_wrapper
  Xcell_0_70 bl[70] br[70] vdd vss wl[0] vss vdd sram_sp_cell_wrapper
  Xcell_0_71 bl[71] br[71] vdd vss wl[0] vss vdd sram_sp_cell_wrapper
  Xcell_0_72 bl[72] br[72] vdd vss wl[0] vss vdd sram_sp_cell_wrapper
  Xcell_0_73 bl[73] br[73] vdd vss wl[0] vss vdd sram_sp_cell_wrapper
  Xcell_0_74 bl[74] br[74] vdd vss wl[0] vss vdd sram_sp_cell_wrapper
  Xcell_0_75 bl[75] br[75] vdd vss wl[0] vss vdd sram_sp_cell_wrapper
  Xcell_0_76 bl[76] br[76] vdd vss wl[0] vss vdd sram_sp_cell_wrapper
  Xcell_0_77 bl[77] br[77] vdd vss wl[0] vss vdd sram_sp_cell_wrapper
  Xcell_0_78 bl[78] br[78] vdd vss wl[0] vss vdd sram_sp_cell_wrapper
  Xcell_0_79 bl[79] br[79] vdd vss wl[0] vss vdd sram_sp_cell_wrapper
  Xcell_0_80 bl[80] br[80] vdd vss wl[0] vss vdd sram_sp_cell_wrapper
  Xcell_0_81 bl[81] br[81] vdd vss wl[0] vss vdd sram_sp_cell_wrapper
  Xcell_0_82 bl[82] br[82] vdd vss wl[0] vss vdd sram_sp_cell_wrapper
  Xcell_0_83 bl[83] br[83] vdd vss wl[0] vss vdd sram_sp_cell_wrapper
  Xcell_0_84 bl[84] br[84] vdd vss wl[0] vss vdd sram_sp_cell_wrapper
  Xcell_0_85 bl[85] br[85] vdd vss wl[0] vss vdd sram_sp_cell_wrapper
  Xcell_0_86 bl[86] br[86] vdd vss wl[0] vss vdd sram_sp_cell_wrapper
  Xcell_0_87 bl[87] br[87] vdd vss wl[0] vss vdd sram_sp_cell_wrapper
  Xcell_0_88 bl[88] br[88] vdd vss wl[0] vss vdd sram_sp_cell_wrapper
  Xcell_0_89 bl[89] br[89] vdd vss wl[0] vss vdd sram_sp_cell_wrapper
  Xcell_0_90 bl[90] br[90] vdd vss wl[0] vss vdd sram_sp_cell_wrapper
  Xcell_0_91 bl[91] br[91] vdd vss wl[0] vss vdd sram_sp_cell_wrapper
  Xcell_0_92 bl[92] br[92] vdd vss wl[0] vss vdd sram_sp_cell_wrapper
  Xcell_0_93 bl[93] br[93] vdd vss wl[0] vss vdd sram_sp_cell_wrapper
  Xcell_0_94 bl[94] br[94] vdd vss wl[0] vss vdd sram_sp_cell_wrapper
  Xcell_0_95 bl[95] br[95] vdd vss wl[0] vss vdd sram_sp_cell_wrapper
  Xcell_0_96 bl[96] br[96] vdd vss wl[0] vss vdd sram_sp_cell_wrapper
  Xcell_0_97 bl[97] br[97] vdd vss wl[0] vss vdd sram_sp_cell_wrapper
  Xcell_0_98 bl[98] br[98] vdd vss wl[0] vss vdd sram_sp_cell_wrapper
  Xcell_0_99 bl[99] br[99] vdd vss wl[0] vss vdd sram_sp_cell_wrapper
  Xcell_0_100 bl[100] br[100] vdd vss wl[0] vss vdd sram_sp_cell_wrapper
  Xcell_0_101 bl[101] br[101] vdd vss wl[0] vss vdd sram_sp_cell_wrapper
  Xcell_0_102 bl[102] br[102] vdd vss wl[0] vss vdd sram_sp_cell_wrapper
  Xcell_0_103 bl[103] br[103] vdd vss wl[0] vss vdd sram_sp_cell_wrapper
  Xcell_0_104 bl[104] br[104] vdd vss wl[0] vss vdd sram_sp_cell_wrapper
  Xcell_0_105 bl[105] br[105] vdd vss wl[0] vss vdd sram_sp_cell_wrapper
  Xcell_0_106 bl[106] br[106] vdd vss wl[0] vss vdd sram_sp_cell_wrapper
  Xcell_0_107 bl[107] br[107] vdd vss wl[0] vss vdd sram_sp_cell_wrapper
  Xcell_0_108 bl[108] br[108] vdd vss wl[0] vss vdd sram_sp_cell_wrapper
  Xcell_0_109 bl[109] br[109] vdd vss wl[0] vss vdd sram_sp_cell_wrapper
  Xcell_0_110 bl[110] br[110] vdd vss wl[0] vss vdd sram_sp_cell_wrapper
  Xcell_0_111 bl[111] br[111] vdd vss wl[0] vss vdd sram_sp_cell_wrapper
  Xcell_0_112 bl[112] br[112] vdd vss wl[0] vss vdd sram_sp_cell_wrapper
  Xcell_0_113 bl[113] br[113] vdd vss wl[0] vss vdd sram_sp_cell_wrapper
  Xcell_0_114 bl[114] br[114] vdd vss wl[0] vss vdd sram_sp_cell_wrapper
  Xcell_0_115 bl[115] br[115] vdd vss wl[0] vss vdd sram_sp_cell_wrapper
  Xcell_0_116 bl[116] br[116] vdd vss wl[0] vss vdd sram_sp_cell_wrapper
  Xcell_0_117 bl[117] br[117] vdd vss wl[0] vss vdd sram_sp_cell_wrapper
  Xcell_0_118 bl[118] br[118] vdd vss wl[0] vss vdd sram_sp_cell_wrapper
  Xcell_0_119 bl[119] br[119] vdd vss wl[0] vss vdd sram_sp_cell_wrapper