* Substrate SPICE library
* This is a generated file. Be careful when editing manually: this file may be overwritten.


.SUBCKT mos_w2600_l150_m1_nf1_id1 d g s b

  X0 d g s b sky130_fd_pr__pfet_01v8 l=0.150 nf=1 w=2.600


.ENDS mos_w2600_l150_m1_nf1_id1

.SUBCKT mos_w1550_l150_m1_nf1_id1 d g s b

  X0 d g s b sky130_fd_pr__pfet_01v8 l=0.150 nf=1 w=1.550


.ENDS mos_w1550_l150_m1_nf1_id1

.SUBCKT precharge_1 vdd bl br en_b

  Xbl_pull_up bl en_b vdd vdd mos_w2600_l150_m1_nf1_id1
  Xbr_pull_up br en_b vdd vdd mos_w2600_l150_m1_nf1_id1
  Xequalizer bl en_b br vdd mos_w1550_l150_m1_nf1_id1

.ENDS precharge_1

.SUBCKT mos_w3650_l150_m1_nf1_id1 d g s b

  X0 d g s b sky130_fd_pr__pfet_01v8 l=0.150 nf=1 w=3.650


.ENDS mos_w3650_l150_m1_nf1_id1

.SUBCKT mos_w2400_l150_m1_nf1_id0 d g s b

  X0 d g s b sky130_fd_pr__nfet_01v8 l=0.150 nf=1 w=2.400


.ENDS mos_w2400_l150_m1_nf1_id0

.SUBCKT tgate_mux sel_b sel bl br bl_out br_out vdd vss

  XMPBL bl_out sel_b bl vdd mos_w3650_l150_m1_nf1_id1
  XMPBR br_out sel_b br vdd mos_w3650_l150_m1_nf1_id1
  XMNBL bl_out sel bl vss mos_w2400_l150_m1_nf1_id0
  XMNBR br_out sel br vss mos_w2400_l150_m1_nf1_id0

.ENDS tgate_mux

.SUBCKT mos_w2600_l150_m1_nf1_id0 d g s b

  X0 d g s b sky130_fd_pr__nfet_01v8 l=0.150 nf=1 w=2.600


.ENDS mos_w2600_l150_m1_nf1_id0

.SUBCKT tristate_inv din en en_b din_b vdd vss

  Xmn_en din_b en nint vss mos_w2600_l150_m1_nf1_id0
  Xmn_pd nint din vss vss mos_w2600_l150_m1_nf1_id0
  Xmp_en din_b en_b pint vdd mos_w2600_l150_m1_nf1_id1
  Xmp_pu pint din vdd vdd mos_w2600_l150_m1_nf1_id1

.ENDS tristate_inv

.SUBCKT write_driver en en_b data data_b bl br vdd vss

  Xbldriver data_b en en_b bl vdd vss tristate_inv
  Xbrdriver data en en_b br vdd vss tristate_inv

.ENDS write_driver

.SUBCKT sramgen_sp_sense_amp clk inn inp outn outp VDD VSS

  XSWOP outp clk VDD VDD sky130_fd_pr__pfet_01v8 l=0.150 nf=2 w=1.000

  XSWON outn clk VDD VDD sky130_fd_pr__pfet_01v8 l=0.150 nf=2 w=1.000

  XSWMP midp clk VDD VDD sky130_fd_pr__pfet_01v8 l=0.150 nf=2 w=1.000

  XSWMN midn clk VDD VDD sky130_fd_pr__pfet_01v8 l=0.150 nf=2 w=1.000

  XPFBP outp outn VDD VDD sky130_fd_pr__pfet_01v8 l=0.150 nf=2 w=2.000

  XPFBN outn outp VDD VDD sky130_fd_pr__pfet_01v8 l=0.150 nf=2 w=2.000

  XTAIL tail clk VSS VSS sky130_fd_pr__nfet_01v8 l=0.150 nf=4 w=1.680

  XNFBP outp outn midp VSS sky130_fd_pr__nfet_01v8 l=0.150 nf=2 w=1.680

  XNFBN outn outp midn VSS sky130_fd_pr__nfet_01v8 l=0.150 nf=2 w=1.680

  XINP midn inp tail VSS sky130_fd_pr__nfet_01v8 l=0.150 nf=2 w=1.680

  XINN midp inn tail VSS sky130_fd_pr__nfet_01v8 l=0.150 nf=2 w=1.680


.ENDS sramgen_sp_sense_amp

.SUBCKT sramgen_sp_sense_amp_wrapper clk inn inp outn outp VDD VSS

  X0 clk inn inp outn outp VDD VSS sramgen_sp_sense_amp

.ENDS sramgen_sp_sense_amp_wrapper

.SUBCKT mos_w1000_l150_m1_nf1_id1 d g s b

  X0 d g s b sky130_fd_pr__pfet_01v8 l=0.150 nf=1 w=1.000


.ENDS mos_w1000_l150_m1_nf1_id1

.SUBCKT mos_w600_l150_m1_nf1_id0 d g s b

  X0 d g s b sky130_fd_pr__nfet_01v8 l=0.150 nf=1 w=0.600


.ENDS mos_w600_l150_m1_nf1_id0

.SUBCKT folded_inv_6 vdd vss a y

  XMP0 y a vdd vdd mos_w1000_l150_m1_nf1_id1
  XMN0 y a vss vss mos_w600_l150_m1_nf1_id0
  XMP1 y a vdd vdd mos_w1000_l150_m1_nf1_id1
  XMN1 y a vss vss mos_w600_l150_m1_nf1_id0

.ENDS folded_inv_6

.SUBCKT mos_w1000_l150_m1_nf1_id0 d g s b

  X0 d g s b sky130_fd_pr__nfet_01v8 l=0.150 nf=1 w=1.000


.ENDS mos_w1000_l150_m1_nf1_id0

.SUBCKT diff_latch vdd vss din1 din2 dout1 dout2

  Xinbuf_1 vdd vss din1 rst folded_inv_6
  Xinbuf_2 vdd vss din2 set folded_inv_6
  Xoutbuf_1 vdd vss q dout2 folded_inv_6
  Xoutbuf_2 vdd vss qb dout1 folded_inv_6
  Xinvq_1 vdd vss q qb folded_inv_6
  Xinvq_2 vdd vss qb q folded_inv_6
  XMN10 q rst vss vss mos_w1000_l150_m1_nf1_id0
  XMN11 q rst vss vss mos_w1000_l150_m1_nf1_id0
  XMN20 qb set vss vss mos_w1000_l150_m1_nf1_id0
  XMN21 qb set vss vss mos_w1000_l150_m1_nf1_id0

.ENDS diff_latch

.SUBCKT sky130_fd_sc_hs__dfrbp_2 CLK D RESET_B VGND VNB VPB VPWR Q Q_N

  X0 a_1800_291# a_1586_149# VPWR VPB sky130_fd_pr__pfet_01v8 l=0.150 nf=1 w=0.420

  X1 VGND CLK a_728_331# VNB sky130_fd_pr__nfet_01v8_lvt l=0.150 nf=1 w=0.740

  X2 Q a_2363_352# VGND VNB sky130_fd_pr__nfet_01v8_lvt l=0.150 nf=1 w=0.740

  X3 VPWR CLK a_728_331# VPB sky130_fd_pr__pfet_01v8 l=0.150 nf=1 w=1.120

  X4 a_1499_149# a_728_331# a_1586_149# VNB sky130_fd_pr__nfet_01v8_lvt l=0.150 nf=1 w=0.420

  X5 a_536_81# a_331_392# a_614_81# VNB sky130_fd_pr__nfet_01v8_lvt l=0.150 nf=1 w=0.420

  X6 a_156_74# RESET_B VGND VNB sky130_fd_pr__nfet_01v8_lvt l=0.150 nf=1 w=0.420

  X7 a_298_294# a_818_418# a_614_81# VNB sky130_fd_pr__nfet_01v8_lvt l=0.150 nf=1 w=0.420

  X8 a_70_74# a_728_331# a_298_294# VNB sky130_fd_pr__nfet_01v8_lvt l=0.150 nf=1 w=0.420

  X9 a_331_392# a_728_331# a_1586_149# VPB sky130_fd_pr__pfet_01v8 l=0.150 nf=1 w=1.000

  X10 a_70_74# D a_156_74# VNB sky130_fd_pr__nfet_01v8_lvt l=0.150 nf=1 w=0.420

  X11 a_818_418# a_728_331# VGND VNB sky130_fd_pr__nfet_01v8_lvt l=0.150 nf=1 w=0.740

  X12 a_818_418# a_728_331# VPWR VPB sky130_fd_pr__pfet_01v8 l=0.150 nf=1 w=1.120

  X13 a_1586_149# a_818_418# a_1755_389# VPB sky130_fd_pr__pfet_01v8 l=0.150 nf=1 w=0.420

  X14 Q_N a_1586_149# VPWR VPB sky130_fd_pr__pfet_01v8 l=0.150 nf=1 w=1.120

  X15 a_298_294# a_818_418# a_70_74# VPB sky130_fd_pr__pfet_01v8 l=0.150 nf=1 w=0.420

  X16 VGND RESET_B a_536_81# VNB sky130_fd_pr__nfet_01v8_lvt l=0.150 nf=1 w=0.420

  X17 a_1755_389# a_1800_291# VPWR VPB sky130_fd_pr__pfet_01v8 l=0.150 nf=1 w=0.420

  X18 a_1586_149# a_818_418# a_331_392# VNB sky130_fd_pr__nfet_01v8_lvt l=0.150 nf=1 w=0.740

  X19 Q a_2363_352# VPWR VPB sky130_fd_pr__pfet_01v8 l=0.150 nf=1 w=1.120

  X20 VGND a_1586_149# Q_N VNB sky130_fd_pr__nfet_01v8_lvt l=0.150 nf=1 w=0.740

  X21 VGND a_1586_149# a_2363_352# VNB sky130_fd_pr__nfet_01v8_lvt l=0.150 nf=1 w=0.640

  X22 VPWR a_298_294# a_331_392# VPB sky130_fd_pr__pfet_01v8 l=0.150 nf=1 w=1.000

  X23 a_298_294# RESET_B VPWR VPB sky130_fd_pr__pfet_01v8 l=0.150 nf=1 w=0.420

  X24 a_1499_149# a_1800_291# VGND VNB sky130_fd_pr__nfet_01v8_lvt l=0.150 nf=1 w=0.420

  X25 VPWR a_331_392# a_683_485# VPB sky130_fd_pr__pfet_01v8 l=0.150 nf=1 w=0.420

  X26 VPWR D a_70_74# VPB sky130_fd_pr__pfet_01v8 l=0.150 nf=1 w=0.420

  X27 VPWR RESET_B a_1800_291# VPB sky130_fd_pr__pfet_01v8 l=0.150 nf=1 w=0.420

  X28 a_1974_74# a_1586_149# a_1800_291# VNB sky130_fd_pr__nfet_01v8_lvt l=0.150 nf=1 w=0.420

  X29 a_70_74# RESET_B VPWR VPB sky130_fd_pr__pfet_01v8 l=0.150 nf=1 w=0.420

  X30 Q_N a_1586_149# VGND VNB sky130_fd_pr__nfet_01v8_lvt l=0.150 nf=1 w=0.740

  X31 VPWR a_1586_149# a_2363_352# VPB sky130_fd_pr__pfet_01v8 l=0.150 nf=1 w=1.000

  X32 VGND a_2363_352# Q VNB sky130_fd_pr__nfet_01v8_lvt l=0.150 nf=1 w=0.740

  X33 VPWR a_1586_149# Q_N VPB sky130_fd_pr__pfet_01v8 l=0.150 nf=1 w=1.120

  X34 VGND RESET_B a_1974_74# VNB sky130_fd_pr__nfet_01v8_lvt l=0.150 nf=1 w=0.420

  X35 a_683_485# a_728_331# a_298_294# VPB sky130_fd_pr__pfet_01v8 l=0.150 nf=1 w=0.420

  X36 VGND a_298_294# a_331_392# VNB sky130_fd_pr__nfet_01v8_lvt l=0.150 nf=1 w=0.740

  X37 VPWR a_2363_352# Q VPB sky130_fd_pr__pfet_01v8 l=0.150 nf=1 w=1.120


.ENDS sky130_fd_sc_hs__dfrbp_2

.SUBCKT sky130_fd_sc_hs__dfrbp_2_wrapper CLK D RESET_B VGND VNB VPB VPWR Q Q_N

  X0 CLK D RESET_B VGND VNB VPB VPWR Q Q_N sky130_fd_sc_hs__dfrbp_2

.ENDS sky130_fd_sc_hs__dfrbp_2_wrapper

.SUBCKT column clk rstb vdd vss bl[0] bl[1] bl[2] bl[3] br[0] br[1] br[2] br[3] pc_b sel[0] sel[1] sel[2] sel[3] sel_b[0] sel_b[1] sel_b[2] sel_b[3] we we_b din dout sense_en

  Xprecharge_0 vdd bl[0] br[0] pc_b precharge_1
  Xmux_0 sel_b[0] sel[0] bl[0] br[0] bl_out br_out vdd vss tgate_mux
  Xprecharge_1 vdd bl[1] br[1] pc_b precharge_1
  Xmux_1 sel_b[1] sel[1] bl[1] br[1] bl_out br_out vdd vss tgate_mux
  Xprecharge_2 vdd bl[2] br[2] pc_b precharge_1
  Xmux_2 sel_b[2] sel[2] bl[2] br[2] bl_out br_out vdd vss tgate_mux
  Xprecharge_3 vdd bl[3] br[3] pc_b precharge_1
  Xmux_3 sel_b[3] sel[3] bl[3] br[3] bl_out br_out vdd vss tgate_mux
  Xwrite_driver we we_b q q_b bl_out br_out vdd vss write_driver
  Xsense_amp sense_en br_out bl_out sa_outn sa_outp vdd vss sramgen_sp_sense_amp_wrapper
  Xlatch vdd vss sa_outp sa_outn dout diff_latch_outn diff_latch
  Xdff clk din rstb vss vss vdd vdd q q_b sky130_fd_sc_hs__dfrbp_2_wrapper

.ENDS column

.SUBCKT mos_w1050_l150_m1_nf1_id0 d g s b

  X0 d g s b sky130_fd_pr__nfet_01v8 l=0.150 nf=1 w=1.050


.ENDS mos_w1050_l150_m1_nf1_id0

.SUBCKT mos_w1250_l150_m1_nf1_id1 d g s b

  X0 d g s b sky130_fd_pr__pfet_01v8 l=0.150 nf=1 w=1.250


.ENDS mos_w1250_l150_m1_nf1_id1

.SUBCKT mos_w500_l150_m1_nf1_id0 d g s b

  X0 d g s b sky130_fd_pr__nfet_01v8 l=0.150 nf=1 w=0.500


.ENDS mos_w500_l150_m1_nf1_id0

.SUBCKT folded_inv vdd vss a y

  XMP0 y a vdd vdd mos_w1250_l150_m1_nf1_id1
  XMN0 y a vss vss mos_w500_l150_m1_nf1_id0
  XMP1 y a vdd vdd mos_w1250_l150_m1_nf1_id1
  XMN1 y a vss vss mos_w500_l150_m1_nf1_id0

.ENDS folded_inv

.SUBCKT sram_sp_rowtapend_replica VSS VNB

  X0 VSS VSS VSS VNB sky130_fd_pr__nfet_01v8 l=0.150 nf=1 w=0.420


.ENDS sram_sp_rowtapend_replica

.SUBCKT sram_sp_rowtapend_replica_wrapper VSS VNB

  X0 VSS VNB sram_sp_rowtapend_replica

.ENDS sram_sp_rowtapend_replica_wrapper

.SUBCKT sram_sp_hstrap BR VDD VSS BL VNB VPB

  X0 BL VNB BL VNB sky130_fd_pr__special_nfet_pass l=0.140 nf=1 w=0.140

  X1 BL VNB BL VNB sky130_fd_pr__special_nfet_pass l=0.140 nf=1 w=0.140


.ENDS sram_sp_hstrap

.SUBCKT mos_w3230_l150_m1_nf1_id1 d g s b

  X0 d g s b sky130_fd_pr__pfet_01v8 l=0.150 nf=1 w=3.230


.ENDS mos_w3230_l150_m1_nf1_id1

.SUBCKT sky130_fd_sc_hs__inv_16 A VGND VNB VPB VPWR Y

  X0 VPWR A Y VPB sky130_fd_pr__pfet_01v8 l=0.150 nf=1 w=1.120

  X1 Y A VGND VNB sky130_fd_pr__nfet_01v8_lvt l=0.150 nf=1 w=0.740

  X2 Y A VPWR VPB sky130_fd_pr__pfet_01v8 l=0.150 nf=1 w=1.120

  X3 Y A VPWR VPB sky130_fd_pr__pfet_01v8 l=0.150 nf=1 w=1.120

  X4 VPWR A Y VPB sky130_fd_pr__pfet_01v8 l=0.150 nf=1 w=1.120

  X5 VGND A Y VNB sky130_fd_pr__nfet_01v8_lvt l=0.150 nf=1 w=0.740

  X6 Y A VPWR VPB sky130_fd_pr__pfet_01v8 l=0.150 nf=1 w=1.120

  X7 VGND A Y VNB sky130_fd_pr__nfet_01v8_lvt l=0.150 nf=1 w=0.740

  X8 VPWR A Y VPB sky130_fd_pr__pfet_01v8 l=0.150 nf=1 w=1.120

  X9 VGND A Y VNB sky130_fd_pr__nfet_01v8_lvt l=0.150 nf=1 w=0.740

  X10 Y A VPWR VPB sky130_fd_pr__pfet_01v8 l=0.150 nf=1 w=1.120

  X11 VGND A Y VNB sky130_fd_pr__nfet_01v8_lvt l=0.150 nf=1 w=0.740

  X12 VPWR A Y VPB sky130_fd_pr__pfet_01v8 l=0.150 nf=1 w=1.120

  X13 VGND A Y VNB sky130_fd_pr__nfet_01v8_lvt l=0.150 nf=1 w=0.740

  X14 Y A VGND VNB sky130_fd_pr__nfet_01v8_lvt l=0.150 nf=1 w=0.740

  X15 Y A VGND VNB sky130_fd_pr__nfet_01v8_lvt l=0.150 nf=1 w=0.740

  X16 VGND A Y VNB sky130_fd_pr__nfet_01v8_lvt l=0.150 nf=1 w=0.740

  X17 VPWR A Y VPB sky130_fd_pr__pfet_01v8 l=0.150 nf=1 w=1.120

  X18 VGND A Y VNB sky130_fd_pr__nfet_01v8_lvt l=0.150 nf=1 w=0.740

  X19 Y A VGND VNB sky130_fd_pr__nfet_01v8_lvt l=0.150 nf=1 w=0.740

  X20 Y A VGND VNB sky130_fd_pr__nfet_01v8_lvt l=0.150 nf=1 w=0.740

  X21 VPWR A Y VPB sky130_fd_pr__pfet_01v8 l=0.150 nf=1 w=1.120

  X22 Y A VGND VNB sky130_fd_pr__nfet_01v8_lvt l=0.150 nf=1 w=0.740

  X23 Y A VPWR VPB sky130_fd_pr__pfet_01v8 l=0.150 nf=1 w=1.120

  X24 Y A VPWR VPB sky130_fd_pr__pfet_01v8 l=0.150 nf=1 w=1.120

  X25 VGND A Y VNB sky130_fd_pr__nfet_01v8_lvt l=0.150 nf=1 w=0.740

  X26 Y A VGND VNB sky130_fd_pr__nfet_01v8_lvt l=0.150 nf=1 w=0.740

  X27 Y A VGND VNB sky130_fd_pr__nfet_01v8_lvt l=0.150 nf=1 w=0.740

  X28 VPWR A Y VPB sky130_fd_pr__pfet_01v8 l=0.150 nf=1 w=1.120

  X29 VPWR A Y VPB sky130_fd_pr__pfet_01v8 l=0.150 nf=1 w=1.120

  X30 Y A VPWR VPB sky130_fd_pr__pfet_01v8 l=0.150 nf=1 w=1.120

  X31 Y A VPWR VPB sky130_fd_pr__pfet_01v8 l=0.150 nf=1 w=1.120


.ENDS sky130_fd_sc_hs__inv_16

.SUBCKT sky130_fd_sc_hs__inv_16_wrapper A VGND VNB VPB VPWR Y

  X0 A VGND VNB VPB VPWR Y sky130_fd_sc_hs__inv_16

.ENDS sky130_fd_sc_hs__inv_16_wrapper

.SUBCKT sramgen_svt_inv_2 A VGND VNB VPB VPWR Y

  X0 Y A VPWR VPB sky130_fd_pr__pfet_01v8 l=0.150 nf=1 w=1.120

  X1 VPWR A Y VPB sky130_fd_pr__pfet_01v8 l=0.150 nf=1 w=1.120

  X2 VGND A Y VNB sky130_fd_pr__nfet_01v8 l=0.150 nf=1 w=0.740

  X3 Y A VGND VNB sky130_fd_pr__nfet_01v8 l=0.150 nf=1 w=0.740


.ENDS sramgen_svt_inv_2

.SUBCKT sramgen_svt_inv_2_wrapper A VGND VNB VPB VPWR Y

  X0 A VGND VNB VPB VPWR Y sramgen_svt_inv_2

.ENDS sramgen_svt_inv_2_wrapper

.SUBCKT sramgen_svt_inv_4 A VGND VNB VPB VPWR Y

  X0 VGND A Y VNB sky130_fd_pr__nfet_01v8 l=0.150 nf=1 w=0.740

  X1 VPWR A Y VPB sky130_fd_pr__pfet_01v8 l=0.150 nf=1 w=1.120

  X2 VPWR A Y VPB sky130_fd_pr__pfet_01v8 l=0.150 nf=1 w=1.120

  X3 VGND A Y VNB sky130_fd_pr__nfet_01v8 l=0.150 nf=1 w=0.740

  X4 Y A VGND VNB sky130_fd_pr__nfet_01v8 l=0.150 nf=1 w=0.740

  X5 Y A VPWR VPB sky130_fd_pr__pfet_01v8 l=0.150 nf=1 w=1.120

  X6 Y A VPWR VPB sky130_fd_pr__pfet_01v8 l=0.150 nf=1 w=1.120

  X7 Y A VGND VNB sky130_fd_pr__nfet_01v8 l=0.150 nf=1 w=0.740


.ENDS sramgen_svt_inv_4

.SUBCKT sramgen_svt_inv_4_wrapper A VGND VNB VPB VPWR Y

  X0 A VGND VNB VPB VPWR Y sramgen_svt_inv_4

.ENDS sramgen_svt_inv_4_wrapper

.SUBCKT svt_inv_chain_22 din dout vdd vss

  Xinv0 din vss vss vdd vdd x[0] sramgen_svt_inv_2_wrapper
  Xinv1 x[0] vss vss vdd vdd x[1] sramgen_svt_inv_2_wrapper
  Xinv2 x[1] vss vss vdd vdd x[2] sramgen_svt_inv_2_wrapper
  Xinv3 x[2] vss vss vdd vdd x[3] sramgen_svt_inv_2_wrapper
  Xinv4 x[3] vss vss vdd vdd x[4] sramgen_svt_inv_2_wrapper
  Xinv5 x[4] vss vss vdd vdd x[5] sramgen_svt_inv_2_wrapper
  Xinv6 x[5] vss vss vdd vdd x[6] sramgen_svt_inv_2_wrapper
  Xinv7 x[6] vss vss vdd vdd x[7] sramgen_svt_inv_2_wrapper
  Xinv8 x[7] vss vss vdd vdd x[8] sramgen_svt_inv_2_wrapper
  Xinv9 x[8] vss vss vdd vdd x[9] sramgen_svt_inv_2_wrapper
  Xinv10 x[9] vss vss vdd vdd x[10] sramgen_svt_inv_2_wrapper
  Xinv11 x[10] vss vss vdd vdd x[11] sramgen_svt_inv_2_wrapper
  Xinv12 x[11] vss vss vdd vdd x[12] sramgen_svt_inv_2_wrapper
  Xinv13 x[12] vss vss vdd vdd x[13] sramgen_svt_inv_2_wrapper
  Xinv14 x[13] vss vss vdd vdd x[14] sramgen_svt_inv_2_wrapper
  Xinv15 x[14] vss vss vdd vdd x[15] sramgen_svt_inv_2_wrapper
  Xinv16 x[15] vss vss vdd vdd x[16] sramgen_svt_inv_2_wrapper
  Xinv17 x[16] vss vss vdd vdd x[17] sramgen_svt_inv_2_wrapper
  Xinv18 x[17] vss vss vdd vdd x[18] sramgen_svt_inv_2_wrapper
  Xinv19 x[18] vss vss vdd vdd x[19] sramgen_svt_inv_2_wrapper
  Xinv20 x[19] vss vss vdd vdd x[20] sramgen_svt_inv_2_wrapper
  Xinv21 x[20] vss vss vdd vdd dout sramgen_svt_inv_4_wrapper

.ENDS svt_inv_chain_22

.SUBCKT mos_w700_l150_m1_nf1_id1 d g s b

  X0 d g s b sky130_fd_pr__pfet_01v8 l=0.150 nf=1 w=0.700


.ENDS mos_w700_l150_m1_nf1_id1

.SUBCKT mos_w700_l150_m1_nf1_id0 d g s b

  X0 d g s b sky130_fd_pr__nfet_01v8 l=0.150 nf=1 w=0.700


.ENDS mos_w700_l150_m1_nf1_id0

.SUBCKT multi_finger_inv_3 vdd vss a y

  XMP0 y a vdd vdd mos_w700_l150_m1_nf1_id1
  XMP1 y a vdd vdd mos_w700_l150_m1_nf1_id1
  XMP2 y a vdd vdd mos_w700_l150_m1_nf1_id1
  XMP3 y a vdd vdd mos_w700_l150_m1_nf1_id1
  XMP4 y a vdd vdd mos_w700_l150_m1_nf1_id1
  XMP5 y a vdd vdd mos_w700_l150_m1_nf1_id1
  XMP6 y a vdd vdd mos_w700_l150_m1_nf1_id1
  XMP7 y a vdd vdd mos_w700_l150_m1_nf1_id1
  XMP8 y a vdd vdd mos_w700_l150_m1_nf1_id1
  XMP9 y a vdd vdd mos_w700_l150_m1_nf1_id1
  XMP10 y a vdd vdd mos_w700_l150_m1_nf1_id1
  XMP11 y a vdd vdd mos_w700_l150_m1_nf1_id1
  XMP12 y a vdd vdd mos_w700_l150_m1_nf1_id1
  XMP13 y a vdd vdd mos_w700_l150_m1_nf1_id1
  XMP14 y a vdd vdd mos_w700_l150_m1_nf1_id1
  XMP15 y a vdd vdd mos_w700_l150_m1_nf1_id1
  XMP16 y a vdd vdd mos_w700_l150_m1_nf1_id1
  XMP17 y a vdd vdd mos_w700_l150_m1_nf1_id1
  XMN0 y a vss vss mos_w700_l150_m1_nf1_id0
  XMN1 y a vss vss mos_w700_l150_m1_nf1_id0
  XMN2 y a vss vss mos_w700_l150_m1_nf1_id0
  XMN3 y a vss vss mos_w700_l150_m1_nf1_id0
  XMN4 y a vss vss mos_w700_l150_m1_nf1_id0
  XMN5 y a vss vss mos_w700_l150_m1_nf1_id0
  XMN6 y a vss vss mos_w700_l150_m1_nf1_id0

.ENDS multi_finger_inv_3

.SUBCKT mos_w800_l150_m1_nf1_id1 d g s b

  X0 d g s b sky130_fd_pr__pfet_01v8 l=0.150 nf=1 w=0.800


.ENDS mos_w800_l150_m1_nf1_id1

.SUBCKT mos_w500_l150_m1_nf1_id1 d g s b

  X0 d g s b sky130_fd_pr__pfet_01v8 l=0.150 nf=1 w=0.500


.ENDS mos_w500_l150_m1_nf1_id1

.SUBCKT precharge vdd bl br en_b

  Xbl_pull_up bl en_b vdd vdd mos_w800_l150_m1_nf1_id1
  Xbr_pull_up br en_b vdd vdd mos_w800_l150_m1_nf1_id1
  Xequalizer bl en_b br vdd mos_w500_l150_m1_nf1_id1

.ENDS precharge

.SUBCKT mos_w2500_l150_m1_nf1_id1 d g s b

  X0 d g s b sky130_fd_pr__pfet_01v8 l=0.150 nf=1 w=2.500


.ENDS mos_w2500_l150_m1_nf1_id1

.SUBCKT multi_finger_inv_8 vdd vss a y

  XMP0 y a vdd vdd mos_w700_l150_m1_nf1_id1
  XMP1 y a vdd vdd mos_w700_l150_m1_nf1_id1
  XMP2 y a vdd vdd mos_w700_l150_m1_nf1_id1
  XMP3 y a vdd vdd mos_w700_l150_m1_nf1_id1
  XMP4 y a vdd vdd mos_w700_l150_m1_nf1_id1
  XMP5 y a vdd vdd mos_w700_l150_m1_nf1_id1
  XMP6 y a vdd vdd mos_w700_l150_m1_nf1_id1
  XMP7 y a vdd vdd mos_w700_l150_m1_nf1_id1
  XMP8 y a vdd vdd mos_w700_l150_m1_nf1_id1
  XMP9 y a vdd vdd mos_w700_l150_m1_nf1_id1
  XMP10 y a vdd vdd mos_w700_l150_m1_nf1_id1
  XMP11 y a vdd vdd mos_w700_l150_m1_nf1_id1
  XMP12 y a vdd vdd mos_w700_l150_m1_nf1_id1
  XMP13 y a vdd vdd mos_w700_l150_m1_nf1_id1
  XMP14 y a vdd vdd mos_w700_l150_m1_nf1_id1
  XMP15 y a vdd vdd mos_w700_l150_m1_nf1_id1
  XMP16 y a vdd vdd mos_w700_l150_m1_nf1_id1
  XMP17 y a vdd vdd mos_w700_l150_m1_nf1_id1
  XMP18 y a vdd vdd mos_w700_l150_m1_nf1_id1
  XMP19 y a vdd vdd mos_w700_l150_m1_nf1_id1
  XMP20 y a vdd vdd mos_w700_l150_m1_nf1_id1
  XMP21 y a vdd vdd mos_w700_l150_m1_nf1_id1
  XMP22 y a vdd vdd mos_w700_l150_m1_nf1_id1
  XMP23 y a vdd vdd mos_w700_l150_m1_nf1_id1
  XMN0 y a vss vss mos_w700_l150_m1_nf1_id0
  XMN1 y a vss vss mos_w700_l150_m1_nf1_id0
  XMN2 y a vss vss mos_w700_l150_m1_nf1_id0
  XMN3 y a vss vss mos_w700_l150_m1_nf1_id0
  XMN4 y a vss vss mos_w700_l150_m1_nf1_id0
  XMN5 y a vss vss mos_w700_l150_m1_nf1_id0
  XMN6 y a vss vss mos_w700_l150_m1_nf1_id0
  XMN7 y a vss vss mos_w700_l150_m1_nf1_id0
  XMN8 y a vss vss mos_w700_l150_m1_nf1_id0
  XMN9 y a vss vss mos_w700_l150_m1_nf1_id0

.ENDS multi_finger_inv_8

.SUBCKT sram_sp_cell_replica BL BR VSS VDD VPB VNB WL

  X0 VDD WL BR VNB sky130_fd_pr__special_nfet_pass l=0.150 nf=1 w=0.140

  X1 Q VDD VSS VNB sky130_fd_pr__special_nfet_latch l=0.150 nf=1 w=0.210

  X2 BL WL Q VNB sky130_fd_pr__special_nfet_pass l=0.150 nf=1 w=0.140

  X3 Q WL Q VPB sky130_fd_pr__special_pfet_pass l=0.025 nf=1 w=0.140

  X4 VDD WL VDD VPB sky130_fd_pr__special_pfet_pass l=0.025 nf=1 w=0.140

  X5 VDD Q VDD VPB sky130_fd_pr__special_pfet_pass l=0.150 nf=1 w=0.140

  X6 Q VDD VDD VPB sky130_fd_pr__special_pfet_pass l=0.150 nf=1 w=0.140

  X7 VSS Q VDD VNB sky130_fd_pr__special_nfet_latch l=0.150 nf=1 w=0.210


.ENDS sram_sp_cell_replica

.SUBCKT sram_sp_cell_replica_wrapper BL BR VSS VDD VPB VNB WL

  X0 BL BR VSS VDD VPB VNB WL sram_sp_cell_replica

.ENDS sram_sp_cell_replica_wrapper

.SUBCKT sky130_fd_sc_hs__inv_4 A VGND VNB VPB VPWR Y

  X0 VGND A Y VNB sky130_fd_pr__nfet_01v8_lvt l=0.150 nf=1 w=0.740

  X1 VPWR A Y VPB sky130_fd_pr__pfet_01v8 l=0.150 nf=1 w=1.120

  X2 VPWR A Y VPB sky130_fd_pr__pfet_01v8 l=0.150 nf=1 w=1.120

  X3 VGND A Y VNB sky130_fd_pr__nfet_01v8_lvt l=0.150 nf=1 w=0.740

  X4 Y A VGND VNB sky130_fd_pr__nfet_01v8_lvt l=0.150 nf=1 w=0.740

  X5 Y A VPWR VPB sky130_fd_pr__pfet_01v8 l=0.150 nf=1 w=1.120

  X6 Y A VPWR VPB sky130_fd_pr__pfet_01v8 l=0.150 nf=1 w=1.120

  X7 Y A VGND VNB sky130_fd_pr__nfet_01v8_lvt l=0.150 nf=1 w=0.740


.ENDS sky130_fd_sc_hs__inv_4

.SUBCKT sky130_fd_sc_hs__inv_4_wrapper A VGND VNB VPB VPWR Y

  X0 A VGND VNB VPB VPWR Y sky130_fd_sc_hs__inv_4

.ENDS sky130_fd_sc_hs__inv_4_wrapper

.SUBCKT sram_sp_colend BR VDD VSS BL VNB VPB

  X0 BR VNB BR VNB sky130_fd_pr__special_nfet_pass l=0.140 nf=1 w=0.140


.ENDS sram_sp_colend

.SUBCKT mos_w800_l150_m1_nf1_id0 d g s b

  X0 d g s b sky130_fd_pr__nfet_01v8 l=0.150 nf=1 w=0.800


.ENDS mos_w800_l150_m1_nf1_id0

.SUBCKT mos_w1200_l150_m1_nf1_id0 d g s b

  X0 d g s b sky130_fd_pr__nfet_01v8 l=0.150 nf=1 w=1.200


.ENDS mos_w1200_l150_m1_nf1_id0

.SUBCKT mos_w1700_l150_m1_nf1_id1 d g s b

  X0 d g s b sky130_fd_pr__pfet_01v8 l=0.150 nf=1 w=1.700


.ENDS mos_w1700_l150_m1_nf1_id1

.SUBCKT column_mos vdd vss bl

  Xgate_nmos vss bl vss vss mos_w800_l150_m1_nf1_id0
  Xdrain_nmos bl vss vss vss mos_w1200_l150_m1_nf1_id0
  Xdrain_pmos bl vdd vdd vdd mos_w1700_l150_m1_nf1_id1

.ENDS column_mos

.SUBCKT column_mos_1 vdd vss bl

  Xdrain_nmos bl vss vss vss mos_w1200_l150_m1_nf1_id0
  Xdrain_pmos bl vdd vdd vdd mos_w1700_l150_m1_nf1_id1

.ENDS column_mos_1

.SUBCKT replica_column_mos vdd vss bl

  Xunit0 vdd vss bl column_mos
  Xunit1 vdd vss bl column_mos_1
  Xunit2 vdd vss bl column_mos_1

.ENDS replica_column_mos

.SUBCKT multi_finger_inv_20 vdd vss a y

  XMP0 y a vdd vdd mos_w700_l150_m1_nf1_id1
  XMP1 y a vdd vdd mos_w700_l150_m1_nf1_id1
  XMP2 y a vdd vdd mos_w700_l150_m1_nf1_id1
  XMP3 y a vdd vdd mos_w700_l150_m1_nf1_id1
  XMP4 y a vdd vdd mos_w700_l150_m1_nf1_id1
  XMP5 y a vdd vdd mos_w700_l150_m1_nf1_id1
  XMP6 y a vdd vdd mos_w700_l150_m1_nf1_id1
  XMP7 y a vdd vdd mos_w700_l150_m1_nf1_id1
  XMP8 y a vdd vdd mos_w700_l150_m1_nf1_id1
  XMP9 y a vdd vdd mos_w700_l150_m1_nf1_id1
  XMP10 y a vdd vdd mos_w700_l150_m1_nf1_id1
  XMP11 y a vdd vdd mos_w700_l150_m1_nf1_id1
  XMP12 y a vdd vdd mos_w700_l150_m1_nf1_id1
  XMN0 y a vss vss mos_w700_l150_m1_nf1_id0
  XMN1 y a vss vss mos_w700_l150_m1_nf1_id0
  XMN2 y a vss vss mos_w700_l150_m1_nf1_id0
  XMN3 y a vss vss mos_w700_l150_m1_nf1_id0
  XMN4 y a vss vss mos_w700_l150_m1_nf1_id0

.ENDS multi_finger_inv_20

.SUBCKT mos_w5000_l150_m1_nf1_id1 d g s b

  X0 d g s b sky130_fd_pr__pfet_01v8 l=0.150 nf=1 w=5.000


.ENDS mos_w5000_l150_m1_nf1_id1

.SUBCKT sky130_fd_sc_hs__and2_4 A B VGND VNB VPB VPWR X

  X0 VPWR a_83_269# X VPB sky130_fd_pr__pfet_01v8 l=0.150 nf=1 w=1.120

  X1 VPWR B a_83_269# VPB sky130_fd_pr__pfet_01v8 l=0.150 nf=1 w=0.840

  X2 VPWR a_83_269# X VPB sky130_fd_pr__pfet_01v8 l=0.150 nf=1 w=1.120

  X3 a_504_119# B VGND VNB sky130_fd_pr__nfet_01v8_lvt l=0.150 nf=1 w=0.640

  X4 a_83_269# A VPWR VPB sky130_fd_pr__pfet_01v8 l=0.150 nf=1 w=0.840

  X5 VGND B a_504_119# VNB sky130_fd_pr__nfet_01v8_lvt l=0.150 nf=1 w=0.640

  X6 VGND a_83_269# X VNB sky130_fd_pr__nfet_01v8_lvt l=0.150 nf=1 w=0.740

  X7 a_83_269# B VPWR VPB sky130_fd_pr__pfet_01v8 l=0.150 nf=1 w=0.840

  X8 X a_83_269# VPWR VPB sky130_fd_pr__pfet_01v8 l=0.150 nf=1 w=1.120

  X9 VGND a_83_269# X VNB sky130_fd_pr__nfet_01v8_lvt l=0.150 nf=1 w=0.740

  X10 X a_83_269# VPWR VPB sky130_fd_pr__pfet_01v8 l=0.150 nf=1 w=1.120

  X11 X a_83_269# VGND VNB sky130_fd_pr__nfet_01v8_lvt l=0.150 nf=1 w=0.740

  X12 a_504_119# A a_83_269# VNB sky130_fd_pr__nfet_01v8_lvt l=0.150 nf=1 w=0.640

  X13 a_83_269# A a_504_119# VNB sky130_fd_pr__nfet_01v8_lvt l=0.150 nf=1 w=0.640

  X14 VPWR A a_83_269# VPB sky130_fd_pr__pfet_01v8 l=0.150 nf=1 w=0.840

  X15 X a_83_269# VGND VNB sky130_fd_pr__nfet_01v8_lvt l=0.150 nf=1 w=0.740


.ENDS sky130_fd_sc_hs__and2_4

.SUBCKT multi_finger_inv_6 vdd vss a y

  XMP0 y a vdd vdd mos_w700_l150_m1_nf1_id1
  XMP1 y a vdd vdd mos_w700_l150_m1_nf1_id1
  XMP2 y a vdd vdd mos_w700_l150_m1_nf1_id1
  XMP3 y a vdd vdd mos_w700_l150_m1_nf1_id1
  XMP4 y a vdd vdd mos_w700_l150_m1_nf1_id1
  XMP5 y a vdd vdd mos_w700_l150_m1_nf1_id1
  XMP6 y a vdd vdd mos_w700_l150_m1_nf1_id1
  XMP7 y a vdd vdd mos_w700_l150_m1_nf1_id1
  XMP8 y a vdd vdd mos_w700_l150_m1_nf1_id1
  XMN0 y a vss vss mos_w700_l150_m1_nf1_id0
  XMN1 y a vss vss mos_w700_l150_m1_nf1_id0
  XMN2 y a vss vss mos_w700_l150_m1_nf1_id0

.ENDS multi_finger_inv_6

.SUBCKT multi_finger_inv_7 vdd vss a y

  XMP0 y a vdd vdd mos_w700_l150_m1_nf1_id1
  XMP1 y a vdd vdd mos_w700_l150_m1_nf1_id1
  XMP2 y a vdd vdd mos_w700_l150_m1_nf1_id1
  XMP3 y a vdd vdd mos_w700_l150_m1_nf1_id1
  XMP4 y a vdd vdd mos_w700_l150_m1_nf1_id1
  XMP5 y a vdd vdd mos_w700_l150_m1_nf1_id1
  XMP6 y a vdd vdd mos_w700_l150_m1_nf1_id1
  XMP7 y a vdd vdd mos_w700_l150_m1_nf1_id1
  XMP8 y a vdd vdd mos_w700_l150_m1_nf1_id1
  XMP9 y a vdd vdd mos_w700_l150_m1_nf1_id1
  XMN0 y a vss vss mos_w700_l150_m1_nf1_id0
  XMN1 y a vss vss mos_w700_l150_m1_nf1_id0
  XMN2 y a vss vss mos_w700_l150_m1_nf1_id0
  XMN3 y a vss vss mos_w700_l150_m1_nf1_id0

.ENDS multi_finger_inv_7

.SUBCKT decoder_stage_3 vdd vss y y_b predecode_0_0

  Xgate_0_0_0 vdd vss predecode_0_0 x_0 folded_inv
  Xgate_1_0_0 vdd vss x_0 x_1 multi_finger_inv_6
  Xgate_2_0_0 vdd vss x_1 y_b multi_finger_inv_7
  Xgate_2_0_1 vdd vss x_1 y_b multi_finger_inv_7
  Xgate_3_0_0 vdd vss y_b y multi_finger_inv_8
  Xgate_3_0_1 vdd vss y_b y multi_finger_inv_8

.ENDS decoder_stage_3

.SUBCKT mos_w2650_l150_m1_nf1_id1 d g s b

  X0 d g s b sky130_fd_pr__pfet_01v8 l=0.150 nf=1 w=2.650


.ENDS mos_w2650_l150_m1_nf1_id1

.SUBCKT folded_inv_5 vdd vss a y

  XMP0 y a vdd vdd mos_w2650_l150_m1_nf1_id1
  XMN0 y a vss vss mos_w1050_l150_m1_nf1_id0
  XMP1 y a vdd vdd mos_w2650_l150_m1_nf1_id1
  XMN1 y a vss vss mos_w1050_l150_m1_nf1_id0

.ENDS folded_inv_5

.SUBCKT sram_sp_horiz_wlstrap_p2 VSS VNB

  X0 VSS VSS VSS VNB sky130_fd_pr__nfet_01v8 l=0.150 nf=1 w=0.420


.ENDS sram_sp_horiz_wlstrap_p2

.SUBCKT sky130_fd_sc_hs__buf_16 A VGND VNB VPB VPWR X

  X0 VPWR a_83_260# X VPB sky130_fd_pr__pfet_01v8 l=0.150 nf=1 w=1.120

  X1 VPWR a_83_260# X VPB sky130_fd_pr__pfet_01v8 l=0.150 nf=1 w=1.120

  X2 X a_83_260# VGND VNB sky130_fd_pr__nfet_01v8_lvt l=0.150 nf=1 w=0.740

  X3 VPWR a_83_260# X VPB sky130_fd_pr__pfet_01v8 l=0.150 nf=1 w=1.120

  X4 VPWR A a_83_260# VPB sky130_fd_pr__pfet_01v8 l=0.150 nf=1 w=1.120

  X5 X a_83_260# VGND VNB sky130_fd_pr__nfet_01v8_lvt l=0.150 nf=1 w=0.740

  X6 VPWR a_83_260# X VPB sky130_fd_pr__pfet_01v8 l=0.150 nf=1 w=1.120

  X7 VPWR A a_83_260# VPB sky130_fd_pr__pfet_01v8 l=0.150 nf=1 w=1.120

  X8 VGND a_83_260# X VNB sky130_fd_pr__nfet_01v8_lvt l=0.150 nf=1 w=0.740

  X9 VGND a_83_260# X VNB sky130_fd_pr__nfet_01v8_lvt l=0.150 nf=1 w=0.740

  X10 VPWR A a_83_260# VPB sky130_fd_pr__pfet_01v8 l=0.150 nf=1 w=1.120

  X11 VGND a_83_260# X VNB sky130_fd_pr__nfet_01v8_lvt l=0.150 nf=1 w=0.740

  X12 VPWR a_83_260# X VPB sky130_fd_pr__pfet_01v8 l=0.150 nf=1 w=1.120

  X13 a_83_260# A VPWR VPB sky130_fd_pr__pfet_01v8 l=0.150 nf=1 w=1.120

  X14 VPWR a_83_260# X VPB sky130_fd_pr__pfet_01v8 l=0.150 nf=1 w=1.120

  X15 VGND a_83_260# X VNB sky130_fd_pr__nfet_01v8_lvt l=0.150 nf=1 w=0.740

  X16 VGND A a_83_260# VNB sky130_fd_pr__nfet_01v8_lvt l=0.150 nf=1 w=0.740

  X17 X a_83_260# VGND VNB sky130_fd_pr__nfet_01v8_lvt l=0.150 nf=1 w=0.740

  X18 X a_83_260# VPWR VPB sky130_fd_pr__pfet_01v8 l=0.150 nf=1 w=1.120

  X19 X a_83_260# VGND VNB sky130_fd_pr__nfet_01v8_lvt l=0.150 nf=1 w=0.740

  X20 X a_83_260# VGND VNB sky130_fd_pr__nfet_01v8_lvt l=0.150 nf=1 w=0.740

  X21 X a_83_260# VPWR VPB sky130_fd_pr__pfet_01v8 l=0.150 nf=1 w=1.120

  X22 VGND A a_83_260# VNB sky130_fd_pr__nfet_01v8_lvt l=0.150 nf=1 w=0.740

  X23 VGND a_83_260# X VNB sky130_fd_pr__nfet_01v8_lvt l=0.150 nf=1 w=0.740

  X24 X a_83_260# VPWR VPB sky130_fd_pr__pfet_01v8 l=0.150 nf=1 w=1.120

  X25 a_83_260# A VGND VNB sky130_fd_pr__nfet_01v8_lvt l=0.150 nf=1 w=0.740

  X26 X a_83_260# VPWR VPB sky130_fd_pr__pfet_01v8 l=0.150 nf=1 w=1.120

  X27 a_83_260# A VGND VNB sky130_fd_pr__nfet_01v8_lvt l=0.150 nf=1 w=0.740

  X28 VPWR a_83_260# X VPB sky130_fd_pr__pfet_01v8 l=0.150 nf=1 w=1.120

  X29 a_83_260# A VPWR VPB sky130_fd_pr__pfet_01v8 l=0.150 nf=1 w=1.120

  X30 VGND a_83_260# X VNB sky130_fd_pr__nfet_01v8_lvt l=0.150 nf=1 w=0.740

  X31 X a_83_260# VPWR VPB sky130_fd_pr__pfet_01v8 l=0.150 nf=1 w=1.120

  X32 a_83_260# A VPWR VPB sky130_fd_pr__pfet_01v8 l=0.150 nf=1 w=1.120

  X33 X a_83_260# VPWR VPB sky130_fd_pr__pfet_01v8 l=0.150 nf=1 w=1.120

  X34 VGND a_83_260# X VNB sky130_fd_pr__nfet_01v8_lvt l=0.150 nf=1 w=0.740

  X35 a_83_260# A VGND VNB sky130_fd_pr__nfet_01v8_lvt l=0.150 nf=1 w=0.740

  X36 VGND a_83_260# X VNB sky130_fd_pr__nfet_01v8_lvt l=0.150 nf=1 w=0.740

  X37 VGND A a_83_260# VNB sky130_fd_pr__nfet_01v8_lvt l=0.150 nf=1 w=0.740

  X38 X a_83_260# VPWR VPB sky130_fd_pr__pfet_01v8 l=0.150 nf=1 w=1.120

  X39 X a_83_260# VGND VNB sky130_fd_pr__nfet_01v8_lvt l=0.150 nf=1 w=0.740

  X40 VPWR a_83_260# X VPB sky130_fd_pr__pfet_01v8 l=0.150 nf=1 w=1.120

  X41 X a_83_260# VPWR VPB sky130_fd_pr__pfet_01v8 l=0.150 nf=1 w=1.120

  X42 X a_83_260# VGND VNB sky130_fd_pr__nfet_01v8_lvt l=0.150 nf=1 w=0.740

  X43 X a_83_260# VGND VNB sky130_fd_pr__nfet_01v8_lvt l=0.150 nf=1 w=0.740


.ENDS sky130_fd_sc_hs__buf_16

.SUBCKT sky130_fd_sc_hs__buf_16_wrapper A VGND VNB VPB VPWR X

  X0 A VGND VNB VPB VPWR X sky130_fd_sc_hs__buf_16

.ENDS sky130_fd_sc_hs__buf_16_wrapper

.SUBCKT sky130_fd_sc_hs__nand2_4 A B VGND VNB VPB VPWR Y

  X0 VPWR A Y VPB sky130_fd_pr__pfet_01v8 l=0.150 nf=1 w=1.120

  X1 Y A a_27_74# VNB sky130_fd_pr__nfet_01v8_lvt l=0.150 nf=1 w=0.740

  X2 a_27_74# B VGND VNB sky130_fd_pr__nfet_01v8_lvt l=0.150 nf=1 w=0.740

  X3 VGND B a_27_74# VNB sky130_fd_pr__nfet_01v8_lvt l=0.150 nf=1 w=0.740

  X4 VGND B a_27_74# VNB sky130_fd_pr__nfet_01v8_lvt l=0.150 nf=1 w=0.740

  X5 a_27_74# A Y VNB sky130_fd_pr__nfet_01v8_lvt l=0.150 nf=1 w=0.740

  X6 Y A a_27_74# VNB sky130_fd_pr__nfet_01v8_lvt l=0.150 nf=1 w=0.740

  X7 VPWR B Y VPB sky130_fd_pr__pfet_01v8 l=0.150 nf=1 w=1.120

  X8 Y B VPWR VPB sky130_fd_pr__pfet_01v8 l=0.150 nf=1 w=1.120

  X9 a_27_74# A Y VNB sky130_fd_pr__nfet_01v8_lvt l=0.150 nf=1 w=0.740

  X10 Y A VPWR VPB sky130_fd_pr__pfet_01v8 l=0.150 nf=1 w=1.120

  X11 a_27_74# B VGND VNB sky130_fd_pr__nfet_01v8_lvt l=0.150 nf=1 w=0.740


.ENDS sky130_fd_sc_hs__nand2_4

.SUBCKT mos_w3000_l150_m1_nf1_id0 d g s b

  X0 d g s b sky130_fd_pr__nfet_01v8 l=0.150 nf=1 w=3.000


.ENDS mos_w3000_l150_m1_nf1_id0
