*SPICE NETLIST
* OPEN SOURCE CONVERSION PRELUDE (SPICE)

.SUBCKT sky130_fd_pr__special_nfet_pass d g s b PARAMS: w=1.0 l=1.0 mult=1
M0 d g s b npass l='l' w='w' mult='mult'
.ENDS

.SUBCKT sky130_fd_pr__special_nfet_latch d g s b PARAMS: w=1.0 l=1.0 mult=1
M0 d g s b npd l='l' w='w' mult='mult'
.ENDS

.SUBCKT sky130_fd_pr__nfet_01v8 d g s b PARAMS: w=1.0 l=1.0 mult=1
M0 d g s b nshort l='l' w='w' mult='mult'
.ENDS

.SUBCKT sky130_fd_pr__pfet_01v8 d g s b PARAMS: w=1.0 l=1.0 mult=1
M0 d g s b pshort l='l' w='w' mult='mult'
.ENDS

.SUBCKT sky130_fd_pr__special_pfet_pass d g s b PARAMS: w=1.0 l=1.0 mult=1
M0 d g s b ppu l='l' w='w' mult='mult'
.ENDS

.SUBCKT sky130_fd_pr__pfet_01v8_hvt d g s b PARAMS: w=1.0 l=1.0 mult=1
M0 d g s b phighvt l='l' w='w' mult='mult'
.ENDS

.SUBCKT sky130_fd_pr__nfet_01v8_lvt d g s b PARAMS: w=1.0 l=1.0 mult=1
M0 d g s b nlowvt l='l' w='w' mult='mult'
.ENDS
* circuit.Package sramgen_sramgen_sram_512x32m4w8_replica_v1
* Written by SpiceNetlister
* 

.SUBCKT hierarchical_decoder_nand_2 
+ gnd vdd a b c y 

xn1 
+ x1 a gnd gnd 
+ sky130_fd_pr__nfet_01v8 
+ w='3.2' l='0.15' 

xn2 
+ x2 b x1 gnd 
+ sky130_fd_pr__nfet_01v8 
+ w='3.2' l='0.15' 

xn3 
+ y c x2 gnd 
+ sky130_fd_pr__nfet_01v8 
+ w='3.2' l='0.15' 

xp1 
+ y a vdd vdd 
+ sky130_fd_pr__pfet_01v8 
+ w='2.4' l='0.15' 

xp2 
+ y b vdd vdd 
+ sky130_fd_pr__pfet_01v8 
+ w='2.4' l='0.15' 

xp3 
+ y c vdd vdd 
+ sky130_fd_pr__pfet_01v8 
+ w='2.4' l='0.15' 

.ENDS

.SUBCKT hierarchical_decoder_inv_3 
+ gnd vdd din din_b 

xn 
+ din_b din gnd gnd 
+ sky130_fd_pr__nfet_01v8 
+ w='1.6' l='0.15' 

xp 
+ din_b din vdd vdd 
+ sky130_fd_pr__pfet_01v8 
+ w='2.4' l='0.15' 

.ENDS

.SUBCKT hierarchical_decoder_nand_29 
+ gnd vdd a b y 

xn1 
+ x a gnd gnd 
+ sky130_fd_pr__nfet_01v8 
+ w='3.2' l='0.15' 

xn2 
+ y b x gnd 
+ sky130_fd_pr__nfet_01v8 
+ w='3.2' l='0.15' 

xp1 
+ y a vdd vdd 
+ sky130_fd_pr__pfet_01v8 
+ w='2.4' l='0.15' 

xp2 
+ y b vdd vdd 
+ sky130_fd_pr__pfet_01v8 
+ w='2.4' l='0.15' 

.ENDS

.SUBCKT hierarchical_decoder 
+ vdd gnd addr[6] addr[5] addr[4] addr[3] addr[2] addr[1] addr[0] addr_b[6] addr_b[5] addr_b[4] addr_b[3] addr_b[2] addr_b[1] addr_b[0] decode[127] decode[126] decode[125] decode[124] decode[123] decode[122] decode[121] decode[120] decode[119] decode[118] decode[117] decode[116] decode[115] decode[114] decode[113] decode[112] decode[111] decode[110] decode[109] decode[108] decode[107] decode[106] decode[105] decode[104] decode[103] decode[102] decode[101] decode[100] decode[99] decode[98] decode[97] decode[96] decode[95] decode[94] decode[93] decode[92] decode[91] decode[90] decode[89] decode[88] decode[87] decode[86] decode[85] decode[84] decode[83] decode[82] decode[81] decode[80] decode[79] decode[78] decode[77] decode[76] decode[75] decode[74] decode[73] decode[72] decode[71] decode[70] decode[69] decode[68] decode[67] decode[66] decode[65] decode[64] decode[63] decode[62] decode[61] decode[60] decode[59] decode[58] decode[57] decode[56] decode[55] decode[54] decode[53] decode[52] decode[51] decode[50] decode[49] decode[48] decode[47] decode[46] decode[45] decode[44] decode[43] decode[42] decode[41] decode[40] decode[39] decode[38] decode[37] decode[36] decode[35] decode[34] decode[33] decode[32] decode[31] decode[30] decode[29] decode[28] decode[27] decode[26] decode[25] decode[24] decode[23] decode[22] decode[21] decode[20] decode[19] decode[18] decode[17] decode[16] decode[15] decode[14] decode[13] decode[12] decode[11] decode[10] decode[9] decode[8] decode[7] decode[6] decode[5] decode[4] decode[3] decode[2] decode[1] decode[0] decode_b[127] decode_b[126] decode_b[125] decode_b[124] decode_b[123] decode_b[122] decode_b[121] decode_b[120] decode_b[119] decode_b[118] decode_b[117] decode_b[116] decode_b[115] decode_b[114] decode_b[113] decode_b[112] decode_b[111] decode_b[110] decode_b[109] decode_b[108] decode_b[107] decode_b[106] decode_b[105] decode_b[104] decode_b[103] decode_b[102] decode_b[101] decode_b[100] decode_b[99] decode_b[98] decode_b[97] decode_b[96] decode_b[95] decode_b[94] decode_b[93] decode_b[92] decode_b[91] decode_b[90] decode_b[89] decode_b[88] decode_b[87] decode_b[86] decode_b[85] decode_b[84] decode_b[83] decode_b[82] decode_b[81] decode_b[80] decode_b[79] decode_b[78] decode_b[77] decode_b[76] decode_b[75] decode_b[74] decode_b[73] decode_b[72] decode_b[71] decode_b[70] decode_b[69] decode_b[68] decode_b[67] decode_b[66] decode_b[65] decode_b[64] decode_b[63] decode_b[62] decode_b[61] decode_b[60] decode_b[59] decode_b[58] decode_b[57] decode_b[56] decode_b[55] decode_b[54] decode_b[53] decode_b[52] decode_b[51] decode_b[50] decode_b[49] decode_b[48] decode_b[47] decode_b[46] decode_b[45] decode_b[44] decode_b[43] decode_b[42] decode_b[41] decode_b[40] decode_b[39] decode_b[38] decode_b[37] decode_b[36] decode_b[35] decode_b[34] decode_b[33] decode_b[32] decode_b[31] decode_b[30] decode_b[29] decode_b[28] decode_b[27] decode_b[26] decode_b[25] decode_b[24] decode_b[23] decode_b[22] decode_b[21] decode_b[20] decode_b[19] decode_b[18] decode_b[17] decode_b[16] decode_b[15] decode_b[14] decode_b[13] decode_b[12] decode_b[11] decode_b[10] decode_b[9] decode_b[8] decode_b[7] decode_b[6] decode_b[5] decode_b[4] decode_b[3] decode_b[2] decode_b[1] decode_b[0] 

xnand_5 
+ gnd vdd addr_b[6] addr_b[5] addr_b[4] net_4 
+ hierarchical_decoder_nand_2 
* No parameters

xinv_6 
+ gnd vdd net_4 predecode_1[0] 
+ hierarchical_decoder_inv_3 
* No parameters

xnand_8 
+ gnd vdd addr_b[6] addr_b[5] addr[4] net_7 
+ hierarchical_decoder_nand_2 
* No parameters

xinv_9 
+ gnd vdd net_7 predecode_1[1] 
+ hierarchical_decoder_inv_3 
* No parameters

xnand_11 
+ gnd vdd addr_b[6] addr[5] addr_b[4] net_10 
+ hierarchical_decoder_nand_2 
* No parameters

xinv_12 
+ gnd vdd net_10 predecode_1[2] 
+ hierarchical_decoder_inv_3 
* No parameters

xnand_14 
+ gnd vdd addr_b[6] addr[5] addr[4] net_13 
+ hierarchical_decoder_nand_2 
* No parameters

xinv_15 
+ gnd vdd net_13 predecode_1[3] 
+ hierarchical_decoder_inv_3 
* No parameters

xnand_17 
+ gnd vdd addr[6] addr_b[5] addr_b[4] net_16 
+ hierarchical_decoder_nand_2 
* No parameters

xinv_18 
+ gnd vdd net_16 predecode_1[4] 
+ hierarchical_decoder_inv_3 
* No parameters

xnand_20 
+ gnd vdd addr[6] addr_b[5] addr[4] net_19 
+ hierarchical_decoder_nand_2 
* No parameters

xinv_21 
+ gnd vdd net_19 predecode_1[5] 
+ hierarchical_decoder_inv_3 
* No parameters

xnand_23 
+ gnd vdd addr[6] addr[5] addr_b[4] net_22 
+ hierarchical_decoder_nand_2 
* No parameters

xinv_24 
+ gnd vdd net_22 predecode_1[6] 
+ hierarchical_decoder_inv_3 
* No parameters

xnand_26 
+ gnd vdd addr[6] addr[5] addr[4] net_25 
+ hierarchical_decoder_nand_2 
* No parameters

xinv_27 
+ gnd vdd net_25 predecode_1[7] 
+ hierarchical_decoder_inv_3 
* No parameters

xnand_31 
+ gnd vdd addr_b[3] addr_b[2] net_30 
+ hierarchical_decoder_nand_29 
* No parameters

xinv_32 
+ gnd vdd net_30 predecode_28[0] 
+ hierarchical_decoder_inv_3 
* No parameters

xnand_34 
+ gnd vdd addr_b[3] addr[2] net_33 
+ hierarchical_decoder_nand_29 
* No parameters

xinv_35 
+ gnd vdd net_33 predecode_28[1] 
+ hierarchical_decoder_inv_3 
* No parameters

xnand_37 
+ gnd vdd addr[3] addr_b[2] net_36 
+ hierarchical_decoder_nand_29 
* No parameters

xinv_38 
+ gnd vdd net_36 predecode_28[2] 
+ hierarchical_decoder_inv_3 
* No parameters

xnand_40 
+ gnd vdd addr[3] addr[2] net_39 
+ hierarchical_decoder_nand_29 
* No parameters

xinv_41 
+ gnd vdd net_39 predecode_28[3] 
+ hierarchical_decoder_inv_3 
* No parameters

xnand_44 
+ gnd vdd addr_b[1] addr_b[0] net_43 
+ hierarchical_decoder_nand_29 
* No parameters

xinv_45 
+ gnd vdd net_43 predecode_42[0] 
+ hierarchical_decoder_inv_3 
* No parameters

xnand_47 
+ gnd vdd addr_b[1] addr[0] net_46 
+ hierarchical_decoder_nand_29 
* No parameters

xinv_48 
+ gnd vdd net_46 predecode_42[1] 
+ hierarchical_decoder_inv_3 
* No parameters

xnand_50 
+ gnd vdd addr[1] addr_b[0] net_49 
+ hierarchical_decoder_nand_29 
* No parameters

xinv_51 
+ gnd vdd net_49 predecode_42[2] 
+ hierarchical_decoder_inv_3 
* No parameters

xnand_53 
+ gnd vdd addr[1] addr[0] net_52 
+ hierarchical_decoder_nand_29 
* No parameters

xinv_54 
+ gnd vdd net_52 predecode_42[3] 
+ hierarchical_decoder_inv_3 
* No parameters

xnand_57 
+ gnd vdd predecode_28[0] predecode_42[0] net_56 
+ hierarchical_decoder_nand_29 
* No parameters

xinv_58 
+ gnd vdd net_56 predecode_55[0] 
+ hierarchical_decoder_inv_3 
* No parameters

xnand_60 
+ gnd vdd predecode_28[0] predecode_42[1] net_59 
+ hierarchical_decoder_nand_29 
* No parameters

xinv_61 
+ gnd vdd net_59 predecode_55[1] 
+ hierarchical_decoder_inv_3 
* No parameters

xnand_63 
+ gnd vdd predecode_28[0] predecode_42[2] net_62 
+ hierarchical_decoder_nand_29 
* No parameters

xinv_64 
+ gnd vdd net_62 predecode_55[2] 
+ hierarchical_decoder_inv_3 
* No parameters

xnand_66 
+ gnd vdd predecode_28[0] predecode_42[3] net_65 
+ hierarchical_decoder_nand_29 
* No parameters

xinv_67 
+ gnd vdd net_65 predecode_55[3] 
+ hierarchical_decoder_inv_3 
* No parameters

xnand_69 
+ gnd vdd predecode_28[1] predecode_42[0] net_68 
+ hierarchical_decoder_nand_29 
* No parameters

xinv_70 
+ gnd vdd net_68 predecode_55[4] 
+ hierarchical_decoder_inv_3 
* No parameters

xnand_72 
+ gnd vdd predecode_28[1] predecode_42[1] net_71 
+ hierarchical_decoder_nand_29 
* No parameters

xinv_73 
+ gnd vdd net_71 predecode_55[5] 
+ hierarchical_decoder_inv_3 
* No parameters

xnand_75 
+ gnd vdd predecode_28[1] predecode_42[2] net_74 
+ hierarchical_decoder_nand_29 
* No parameters

xinv_76 
+ gnd vdd net_74 predecode_55[6] 
+ hierarchical_decoder_inv_3 
* No parameters

xnand_78 
+ gnd vdd predecode_28[1] predecode_42[3] net_77 
+ hierarchical_decoder_nand_29 
* No parameters

xinv_79 
+ gnd vdd net_77 predecode_55[7] 
+ hierarchical_decoder_inv_3 
* No parameters

xnand_81 
+ gnd vdd predecode_28[2] predecode_42[0] net_80 
+ hierarchical_decoder_nand_29 
* No parameters

xinv_82 
+ gnd vdd net_80 predecode_55[8] 
+ hierarchical_decoder_inv_3 
* No parameters

xnand_84 
+ gnd vdd predecode_28[2] predecode_42[1] net_83 
+ hierarchical_decoder_nand_29 
* No parameters

xinv_85 
+ gnd vdd net_83 predecode_55[9] 
+ hierarchical_decoder_inv_3 
* No parameters

xnand_87 
+ gnd vdd predecode_28[2] predecode_42[2] net_86 
+ hierarchical_decoder_nand_29 
* No parameters

xinv_88 
+ gnd vdd net_86 predecode_55[10] 
+ hierarchical_decoder_inv_3 
* No parameters

xnand_90 
+ gnd vdd predecode_28[2] predecode_42[3] net_89 
+ hierarchical_decoder_nand_29 
* No parameters

xinv_91 
+ gnd vdd net_89 predecode_55[11] 
+ hierarchical_decoder_inv_3 
* No parameters

xnand_93 
+ gnd vdd predecode_28[3] predecode_42[0] net_92 
+ hierarchical_decoder_nand_29 
* No parameters

xinv_94 
+ gnd vdd net_92 predecode_55[12] 
+ hierarchical_decoder_inv_3 
* No parameters

xnand_96 
+ gnd vdd predecode_28[3] predecode_42[1] net_95 
+ hierarchical_decoder_nand_29 
* No parameters

xinv_97 
+ gnd vdd net_95 predecode_55[13] 
+ hierarchical_decoder_inv_3 
* No parameters

xnand_99 
+ gnd vdd predecode_28[3] predecode_42[2] net_98 
+ hierarchical_decoder_nand_29 
* No parameters

xinv_100 
+ gnd vdd net_98 predecode_55[14] 
+ hierarchical_decoder_inv_3 
* No parameters

xnand_102 
+ gnd vdd predecode_28[3] predecode_42[3] net_101 
+ hierarchical_decoder_nand_29 
* No parameters

xinv_103 
+ gnd vdd net_101 predecode_55[15] 
+ hierarchical_decoder_inv_3 
* No parameters

xnand_104 
+ gnd vdd predecode_1[0] predecode_55[0] decode_b[0] 
+ hierarchical_decoder_nand_29 
* No parameters

xinv_105 
+ gnd vdd decode_b[0] decode[0] 
+ hierarchical_decoder_inv_3 
* No parameters

xnand_106 
+ gnd vdd predecode_1[0] predecode_55[1] decode_b[1] 
+ hierarchical_decoder_nand_29 
* No parameters

xinv_107 
+ gnd vdd decode_b[1] decode[1] 
+ hierarchical_decoder_inv_3 
* No parameters

xnand_108 
+ gnd vdd predecode_1[0] predecode_55[2] decode_b[2] 
+ hierarchical_decoder_nand_29 
* No parameters

xinv_109 
+ gnd vdd decode_b[2] decode[2] 
+ hierarchical_decoder_inv_3 
* No parameters

xnand_110 
+ gnd vdd predecode_1[0] predecode_55[3] decode_b[3] 
+ hierarchical_decoder_nand_29 
* No parameters

xinv_111 
+ gnd vdd decode_b[3] decode[3] 
+ hierarchical_decoder_inv_3 
* No parameters

xnand_112 
+ gnd vdd predecode_1[0] predecode_55[4] decode_b[4] 
+ hierarchical_decoder_nand_29 
* No parameters

xinv_113 
+ gnd vdd decode_b[4] decode[4] 
+ hierarchical_decoder_inv_3 
* No parameters

xnand_114 
+ gnd vdd predecode_1[0] predecode_55[5] decode_b[5] 
+ hierarchical_decoder_nand_29 
* No parameters

xinv_115 
+ gnd vdd decode_b[5] decode[5] 
+ hierarchical_decoder_inv_3 
* No parameters

xnand_116 
+ gnd vdd predecode_1[0] predecode_55[6] decode_b[6] 
+ hierarchical_decoder_nand_29 
* No parameters

xinv_117 
+ gnd vdd decode_b[6] decode[6] 
+ hierarchical_decoder_inv_3 
* No parameters

xnand_118 
+ gnd vdd predecode_1[0] predecode_55[7] decode_b[7] 
+ hierarchical_decoder_nand_29 
* No parameters

xinv_119 
+ gnd vdd decode_b[7] decode[7] 
+ hierarchical_decoder_inv_3 
* No parameters

xnand_120 
+ gnd vdd predecode_1[0] predecode_55[8] decode_b[8] 
+ hierarchical_decoder_nand_29 
* No parameters

xinv_121 
+ gnd vdd decode_b[8] decode[8] 
+ hierarchical_decoder_inv_3 
* No parameters

xnand_122 
+ gnd vdd predecode_1[0] predecode_55[9] decode_b[9] 
+ hierarchical_decoder_nand_29 
* No parameters

xinv_123 
+ gnd vdd decode_b[9] decode[9] 
+ hierarchical_decoder_inv_3 
* No parameters

xnand_124 
+ gnd vdd predecode_1[0] predecode_55[10] decode_b[10] 
+ hierarchical_decoder_nand_29 
* No parameters

xinv_125 
+ gnd vdd decode_b[10] decode[10] 
+ hierarchical_decoder_inv_3 
* No parameters

xnand_126 
+ gnd vdd predecode_1[0] predecode_55[11] decode_b[11] 
+ hierarchical_decoder_nand_29 
* No parameters

xinv_127 
+ gnd vdd decode_b[11] decode[11] 
+ hierarchical_decoder_inv_3 
* No parameters

xnand_128 
+ gnd vdd predecode_1[0] predecode_55[12] decode_b[12] 
+ hierarchical_decoder_nand_29 
* No parameters

xinv_129 
+ gnd vdd decode_b[12] decode[12] 
+ hierarchical_decoder_inv_3 
* No parameters

xnand_130 
+ gnd vdd predecode_1[0] predecode_55[13] decode_b[13] 
+ hierarchical_decoder_nand_29 
* No parameters

xinv_131 
+ gnd vdd decode_b[13] decode[13] 
+ hierarchical_decoder_inv_3 
* No parameters

xnand_132 
+ gnd vdd predecode_1[0] predecode_55[14] decode_b[14] 
+ hierarchical_decoder_nand_29 
* No parameters

xinv_133 
+ gnd vdd decode_b[14] decode[14] 
+ hierarchical_decoder_inv_3 
* No parameters

xnand_134 
+ gnd vdd predecode_1[0] predecode_55[15] decode_b[15] 
+ hierarchical_decoder_nand_29 
* No parameters

xinv_135 
+ gnd vdd decode_b[15] decode[15] 
+ hierarchical_decoder_inv_3 
* No parameters

xnand_136 
+ gnd vdd predecode_1[1] predecode_55[0] decode_b[16] 
+ hierarchical_decoder_nand_29 
* No parameters

xinv_137 
+ gnd vdd decode_b[16] decode[16] 
+ hierarchical_decoder_inv_3 
* No parameters

xnand_138 
+ gnd vdd predecode_1[1] predecode_55[1] decode_b[17] 
+ hierarchical_decoder_nand_29 
* No parameters

xinv_139 
+ gnd vdd decode_b[17] decode[17] 
+ hierarchical_decoder_inv_3 
* No parameters

xnand_140 
+ gnd vdd predecode_1[1] predecode_55[2] decode_b[18] 
+ hierarchical_decoder_nand_29 
* No parameters

xinv_141 
+ gnd vdd decode_b[18] decode[18] 
+ hierarchical_decoder_inv_3 
* No parameters

xnand_142 
+ gnd vdd predecode_1[1] predecode_55[3] decode_b[19] 
+ hierarchical_decoder_nand_29 
* No parameters

xinv_143 
+ gnd vdd decode_b[19] decode[19] 
+ hierarchical_decoder_inv_3 
* No parameters

xnand_144 
+ gnd vdd predecode_1[1] predecode_55[4] decode_b[20] 
+ hierarchical_decoder_nand_29 
* No parameters

xinv_145 
+ gnd vdd decode_b[20] decode[20] 
+ hierarchical_decoder_inv_3 
* No parameters

xnand_146 
+ gnd vdd predecode_1[1] predecode_55[5] decode_b[21] 
+ hierarchical_decoder_nand_29 
* No parameters

xinv_147 
+ gnd vdd decode_b[21] decode[21] 
+ hierarchical_decoder_inv_3 
* No parameters

xnand_148 
+ gnd vdd predecode_1[1] predecode_55[6] decode_b[22] 
+ hierarchical_decoder_nand_29 
* No parameters

xinv_149 
+ gnd vdd decode_b[22] decode[22] 
+ hierarchical_decoder_inv_3 
* No parameters

xnand_150 
+ gnd vdd predecode_1[1] predecode_55[7] decode_b[23] 
+ hierarchical_decoder_nand_29 
* No parameters

xinv_151 
+ gnd vdd decode_b[23] decode[23] 
+ hierarchical_decoder_inv_3 
* No parameters

xnand_152 
+ gnd vdd predecode_1[1] predecode_55[8] decode_b[24] 
+ hierarchical_decoder_nand_29 
* No parameters

xinv_153 
+ gnd vdd decode_b[24] decode[24] 
+ hierarchical_decoder_inv_3 
* No parameters

xnand_154 
+ gnd vdd predecode_1[1] predecode_55[9] decode_b[25] 
+ hierarchical_decoder_nand_29 
* No parameters

xinv_155 
+ gnd vdd decode_b[25] decode[25] 
+ hierarchical_decoder_inv_3 
* No parameters

xnand_156 
+ gnd vdd predecode_1[1] predecode_55[10] decode_b[26] 
+ hierarchical_decoder_nand_29 
* No parameters

xinv_157 
+ gnd vdd decode_b[26] decode[26] 
+ hierarchical_decoder_inv_3 
* No parameters

xnand_158 
+ gnd vdd predecode_1[1] predecode_55[11] decode_b[27] 
+ hierarchical_decoder_nand_29 
* No parameters

xinv_159 
+ gnd vdd decode_b[27] decode[27] 
+ hierarchical_decoder_inv_3 
* No parameters

xnand_160 
+ gnd vdd predecode_1[1] predecode_55[12] decode_b[28] 
+ hierarchical_decoder_nand_29 
* No parameters

xinv_161 
+ gnd vdd decode_b[28] decode[28] 
+ hierarchical_decoder_inv_3 
* No parameters

xnand_162 
+ gnd vdd predecode_1[1] predecode_55[13] decode_b[29] 
+ hierarchical_decoder_nand_29 
* No parameters

xinv_163 
+ gnd vdd decode_b[29] decode[29] 
+ hierarchical_decoder_inv_3 
* No parameters

xnand_164 
+ gnd vdd predecode_1[1] predecode_55[14] decode_b[30] 
+ hierarchical_decoder_nand_29 
* No parameters

xinv_165 
+ gnd vdd decode_b[30] decode[30] 
+ hierarchical_decoder_inv_3 
* No parameters

xnand_166 
+ gnd vdd predecode_1[1] predecode_55[15] decode_b[31] 
+ hierarchical_decoder_nand_29 
* No parameters

xinv_167 
+ gnd vdd decode_b[31] decode[31] 
+ hierarchical_decoder_inv_3 
* No parameters

xnand_168 
+ gnd vdd predecode_1[2] predecode_55[0] decode_b[32] 
+ hierarchical_decoder_nand_29 
* No parameters

xinv_169 
+ gnd vdd decode_b[32] decode[32] 
+ hierarchical_decoder_inv_3 
* No parameters

xnand_170 
+ gnd vdd predecode_1[2] predecode_55[1] decode_b[33] 
+ hierarchical_decoder_nand_29 
* No parameters

xinv_171 
+ gnd vdd decode_b[33] decode[33] 
+ hierarchical_decoder_inv_3 
* No parameters

xnand_172 
+ gnd vdd predecode_1[2] predecode_55[2] decode_b[34] 
+ hierarchical_decoder_nand_29 
* No parameters

xinv_173 
+ gnd vdd decode_b[34] decode[34] 
+ hierarchical_decoder_inv_3 
* No parameters

xnand_174 
+ gnd vdd predecode_1[2] predecode_55[3] decode_b[35] 
+ hierarchical_decoder_nand_29 
* No parameters

xinv_175 
+ gnd vdd decode_b[35] decode[35] 
+ hierarchical_decoder_inv_3 
* No parameters

xnand_176 
+ gnd vdd predecode_1[2] predecode_55[4] decode_b[36] 
+ hierarchical_decoder_nand_29 
* No parameters

xinv_177 
+ gnd vdd decode_b[36] decode[36] 
+ hierarchical_decoder_inv_3 
* No parameters

xnand_178 
+ gnd vdd predecode_1[2] predecode_55[5] decode_b[37] 
+ hierarchical_decoder_nand_29 
* No parameters

xinv_179 
+ gnd vdd decode_b[37] decode[37] 
+ hierarchical_decoder_inv_3 
* No parameters

xnand_180 
+ gnd vdd predecode_1[2] predecode_55[6] decode_b[38] 
+ hierarchical_decoder_nand_29 
* No parameters

xinv_181 
+ gnd vdd decode_b[38] decode[38] 
+ hierarchical_decoder_inv_3 
* No parameters

xnand_182 
+ gnd vdd predecode_1[2] predecode_55[7] decode_b[39] 
+ hierarchical_decoder_nand_29 
* No parameters

xinv_183 
+ gnd vdd decode_b[39] decode[39] 
+ hierarchical_decoder_inv_3 
* No parameters

xnand_184 
+ gnd vdd predecode_1[2] predecode_55[8] decode_b[40] 
+ hierarchical_decoder_nand_29 
* No parameters

xinv_185 
+ gnd vdd decode_b[40] decode[40] 
+ hierarchical_decoder_inv_3 
* No parameters

xnand_186 
+ gnd vdd predecode_1[2] predecode_55[9] decode_b[41] 
+ hierarchical_decoder_nand_29 
* No parameters

xinv_187 
+ gnd vdd decode_b[41] decode[41] 
+ hierarchical_decoder_inv_3 
* No parameters

xnand_188 
+ gnd vdd predecode_1[2] predecode_55[10] decode_b[42] 
+ hierarchical_decoder_nand_29 
* No parameters

xinv_189 
+ gnd vdd decode_b[42] decode[42] 
+ hierarchical_decoder_inv_3 
* No parameters

xnand_190 
+ gnd vdd predecode_1[2] predecode_55[11] decode_b[43] 
+ hierarchical_decoder_nand_29 
* No parameters

xinv_191 
+ gnd vdd decode_b[43] decode[43] 
+ hierarchical_decoder_inv_3 
* No parameters

xnand_192 
+ gnd vdd predecode_1[2] predecode_55[12] decode_b[44] 
+ hierarchical_decoder_nand_29 
* No parameters

xinv_193 
+ gnd vdd decode_b[44] decode[44] 
+ hierarchical_decoder_inv_3 
* No parameters

xnand_194 
+ gnd vdd predecode_1[2] predecode_55[13] decode_b[45] 
+ hierarchical_decoder_nand_29 
* No parameters

xinv_195 
+ gnd vdd decode_b[45] decode[45] 
+ hierarchical_decoder_inv_3 
* No parameters

xnand_196 
+ gnd vdd predecode_1[2] predecode_55[14] decode_b[46] 
+ hierarchical_decoder_nand_29 
* No parameters

xinv_197 
+ gnd vdd decode_b[46] decode[46] 
+ hierarchical_decoder_inv_3 
* No parameters

xnand_198 
+ gnd vdd predecode_1[2] predecode_55[15] decode_b[47] 
+ hierarchical_decoder_nand_29 
* No parameters

xinv_199 
+ gnd vdd decode_b[47] decode[47] 
+ hierarchical_decoder_inv_3 
* No parameters

xnand_200 
+ gnd vdd predecode_1[3] predecode_55[0] decode_b[48] 
+ hierarchical_decoder_nand_29 
* No parameters

xinv_201 
+ gnd vdd decode_b[48] decode[48] 
+ hierarchical_decoder_inv_3 
* No parameters

xnand_202 
+ gnd vdd predecode_1[3] predecode_55[1] decode_b[49] 
+ hierarchical_decoder_nand_29 
* No parameters

xinv_203 
+ gnd vdd decode_b[49] decode[49] 
+ hierarchical_decoder_inv_3 
* No parameters

xnand_204 
+ gnd vdd predecode_1[3] predecode_55[2] decode_b[50] 
+ hierarchical_decoder_nand_29 
* No parameters

xinv_205 
+ gnd vdd decode_b[50] decode[50] 
+ hierarchical_decoder_inv_3 
* No parameters

xnand_206 
+ gnd vdd predecode_1[3] predecode_55[3] decode_b[51] 
+ hierarchical_decoder_nand_29 
* No parameters

xinv_207 
+ gnd vdd decode_b[51] decode[51] 
+ hierarchical_decoder_inv_3 
* No parameters

xnand_208 
+ gnd vdd predecode_1[3] predecode_55[4] decode_b[52] 
+ hierarchical_decoder_nand_29 
* No parameters

xinv_209 
+ gnd vdd decode_b[52] decode[52] 
+ hierarchical_decoder_inv_3 
* No parameters

xnand_210 
+ gnd vdd predecode_1[3] predecode_55[5] decode_b[53] 
+ hierarchical_decoder_nand_29 
* No parameters

xinv_211 
+ gnd vdd decode_b[53] decode[53] 
+ hierarchical_decoder_inv_3 
* No parameters

xnand_212 
+ gnd vdd predecode_1[3] predecode_55[6] decode_b[54] 
+ hierarchical_decoder_nand_29 
* No parameters

xinv_213 
+ gnd vdd decode_b[54] decode[54] 
+ hierarchical_decoder_inv_3 
* No parameters

xnand_214 
+ gnd vdd predecode_1[3] predecode_55[7] decode_b[55] 
+ hierarchical_decoder_nand_29 
* No parameters

xinv_215 
+ gnd vdd decode_b[55] decode[55] 
+ hierarchical_decoder_inv_3 
* No parameters

xnand_216 
+ gnd vdd predecode_1[3] predecode_55[8] decode_b[56] 
+ hierarchical_decoder_nand_29 
* No parameters

xinv_217 
+ gnd vdd decode_b[56] decode[56] 
+ hierarchical_decoder_inv_3 
* No parameters

xnand_218 
+ gnd vdd predecode_1[3] predecode_55[9] decode_b[57] 
+ hierarchical_decoder_nand_29 
* No parameters

xinv_219 
+ gnd vdd decode_b[57] decode[57] 
+ hierarchical_decoder_inv_3 
* No parameters

xnand_220 
+ gnd vdd predecode_1[3] predecode_55[10] decode_b[58] 
+ hierarchical_decoder_nand_29 
* No parameters

xinv_221 
+ gnd vdd decode_b[58] decode[58] 
+ hierarchical_decoder_inv_3 
* No parameters

xnand_222 
+ gnd vdd predecode_1[3] predecode_55[11] decode_b[59] 
+ hierarchical_decoder_nand_29 
* No parameters

xinv_223 
+ gnd vdd decode_b[59] decode[59] 
+ hierarchical_decoder_inv_3 
* No parameters

xnand_224 
+ gnd vdd predecode_1[3] predecode_55[12] decode_b[60] 
+ hierarchical_decoder_nand_29 
* No parameters

xinv_225 
+ gnd vdd decode_b[60] decode[60] 
+ hierarchical_decoder_inv_3 
* No parameters

xnand_226 
+ gnd vdd predecode_1[3] predecode_55[13] decode_b[61] 
+ hierarchical_decoder_nand_29 
* No parameters

xinv_227 
+ gnd vdd decode_b[61] decode[61] 
+ hierarchical_decoder_inv_3 
* No parameters

xnand_228 
+ gnd vdd predecode_1[3] predecode_55[14] decode_b[62] 
+ hierarchical_decoder_nand_29 
* No parameters

xinv_229 
+ gnd vdd decode_b[62] decode[62] 
+ hierarchical_decoder_inv_3 
* No parameters

xnand_230 
+ gnd vdd predecode_1[3] predecode_55[15] decode_b[63] 
+ hierarchical_decoder_nand_29 
* No parameters

xinv_231 
+ gnd vdd decode_b[63] decode[63] 
+ hierarchical_decoder_inv_3 
* No parameters

xnand_232 
+ gnd vdd predecode_1[4] predecode_55[0] decode_b[64] 
+ hierarchical_decoder_nand_29 
* No parameters

xinv_233 
+ gnd vdd decode_b[64] decode[64] 
+ hierarchical_decoder_inv_3 
* No parameters

xnand_234 
+ gnd vdd predecode_1[4] predecode_55[1] decode_b[65] 
+ hierarchical_decoder_nand_29 
* No parameters

xinv_235 
+ gnd vdd decode_b[65] decode[65] 
+ hierarchical_decoder_inv_3 
* No parameters

xnand_236 
+ gnd vdd predecode_1[4] predecode_55[2] decode_b[66] 
+ hierarchical_decoder_nand_29 
* No parameters

xinv_237 
+ gnd vdd decode_b[66] decode[66] 
+ hierarchical_decoder_inv_3 
* No parameters

xnand_238 
+ gnd vdd predecode_1[4] predecode_55[3] decode_b[67] 
+ hierarchical_decoder_nand_29 
* No parameters

xinv_239 
+ gnd vdd decode_b[67] decode[67] 
+ hierarchical_decoder_inv_3 
* No parameters

xnand_240 
+ gnd vdd predecode_1[4] predecode_55[4] decode_b[68] 
+ hierarchical_decoder_nand_29 
* No parameters

xinv_241 
+ gnd vdd decode_b[68] decode[68] 
+ hierarchical_decoder_inv_3 
* No parameters

xnand_242 
+ gnd vdd predecode_1[4] predecode_55[5] decode_b[69] 
+ hierarchical_decoder_nand_29 
* No parameters

xinv_243 
+ gnd vdd decode_b[69] decode[69] 
+ hierarchical_decoder_inv_3 
* No parameters

xnand_244 
+ gnd vdd predecode_1[4] predecode_55[6] decode_b[70] 
+ hierarchical_decoder_nand_29 
* No parameters

xinv_245 
+ gnd vdd decode_b[70] decode[70] 
+ hierarchical_decoder_inv_3 
* No parameters

xnand_246 
+ gnd vdd predecode_1[4] predecode_55[7] decode_b[71] 
+ hierarchical_decoder_nand_29 
* No parameters

xinv_247 
+ gnd vdd decode_b[71] decode[71] 
+ hierarchical_decoder_inv_3 
* No parameters

xnand_248 
+ gnd vdd predecode_1[4] predecode_55[8] decode_b[72] 
+ hierarchical_decoder_nand_29 
* No parameters

xinv_249 
+ gnd vdd decode_b[72] decode[72] 
+ hierarchical_decoder_inv_3 
* No parameters

xnand_250 
+ gnd vdd predecode_1[4] predecode_55[9] decode_b[73] 
+ hierarchical_decoder_nand_29 
* No parameters

xinv_251 
+ gnd vdd decode_b[73] decode[73] 
+ hierarchical_decoder_inv_3 
* No parameters

xnand_252 
+ gnd vdd predecode_1[4] predecode_55[10] decode_b[74] 
+ hierarchical_decoder_nand_29 
* No parameters

xinv_253 
+ gnd vdd decode_b[74] decode[74] 
+ hierarchical_decoder_inv_3 
* No parameters

xnand_254 
+ gnd vdd predecode_1[4] predecode_55[11] decode_b[75] 
+ hierarchical_decoder_nand_29 
* No parameters

xinv_255 
+ gnd vdd decode_b[75] decode[75] 
+ hierarchical_decoder_inv_3 
* No parameters

xnand_256 
+ gnd vdd predecode_1[4] predecode_55[12] decode_b[76] 
+ hierarchical_decoder_nand_29 
* No parameters

xinv_257 
+ gnd vdd decode_b[76] decode[76] 
+ hierarchical_decoder_inv_3 
* No parameters

xnand_258 
+ gnd vdd predecode_1[4] predecode_55[13] decode_b[77] 
+ hierarchical_decoder_nand_29 
* No parameters

xinv_259 
+ gnd vdd decode_b[77] decode[77] 
+ hierarchical_decoder_inv_3 
* No parameters

xnand_260 
+ gnd vdd predecode_1[4] predecode_55[14] decode_b[78] 
+ hierarchical_decoder_nand_29 
* No parameters

xinv_261 
+ gnd vdd decode_b[78] decode[78] 
+ hierarchical_decoder_inv_3 
* No parameters

xnand_262 
+ gnd vdd predecode_1[4] predecode_55[15] decode_b[79] 
+ hierarchical_decoder_nand_29 
* No parameters

xinv_263 
+ gnd vdd decode_b[79] decode[79] 
+ hierarchical_decoder_inv_3 
* No parameters

xnand_264 
+ gnd vdd predecode_1[5] predecode_55[0] decode_b[80] 
+ hierarchical_decoder_nand_29 
* No parameters

xinv_265 
+ gnd vdd decode_b[80] decode[80] 
+ hierarchical_decoder_inv_3 
* No parameters

xnand_266 
+ gnd vdd predecode_1[5] predecode_55[1] decode_b[81] 
+ hierarchical_decoder_nand_29 
* No parameters

xinv_267 
+ gnd vdd decode_b[81] decode[81] 
+ hierarchical_decoder_inv_3 
* No parameters

xnand_268 
+ gnd vdd predecode_1[5] predecode_55[2] decode_b[82] 
+ hierarchical_decoder_nand_29 
* No parameters

xinv_269 
+ gnd vdd decode_b[82] decode[82] 
+ hierarchical_decoder_inv_3 
* No parameters

xnand_270 
+ gnd vdd predecode_1[5] predecode_55[3] decode_b[83] 
+ hierarchical_decoder_nand_29 
* No parameters

xinv_271 
+ gnd vdd decode_b[83] decode[83] 
+ hierarchical_decoder_inv_3 
* No parameters

xnand_272 
+ gnd vdd predecode_1[5] predecode_55[4] decode_b[84] 
+ hierarchical_decoder_nand_29 
* No parameters

xinv_273 
+ gnd vdd decode_b[84] decode[84] 
+ hierarchical_decoder_inv_3 
* No parameters

xnand_274 
+ gnd vdd predecode_1[5] predecode_55[5] decode_b[85] 
+ hierarchical_decoder_nand_29 
* No parameters

xinv_275 
+ gnd vdd decode_b[85] decode[85] 
+ hierarchical_decoder_inv_3 
* No parameters

xnand_276 
+ gnd vdd predecode_1[5] predecode_55[6] decode_b[86] 
+ hierarchical_decoder_nand_29 
* No parameters

xinv_277 
+ gnd vdd decode_b[86] decode[86] 
+ hierarchical_decoder_inv_3 
* No parameters

xnand_278 
+ gnd vdd predecode_1[5] predecode_55[7] decode_b[87] 
+ hierarchical_decoder_nand_29 
* No parameters

xinv_279 
+ gnd vdd decode_b[87] decode[87] 
+ hierarchical_decoder_inv_3 
* No parameters

xnand_280 
+ gnd vdd predecode_1[5] predecode_55[8] decode_b[88] 
+ hierarchical_decoder_nand_29 
* No parameters

xinv_281 
+ gnd vdd decode_b[88] decode[88] 
+ hierarchical_decoder_inv_3 
* No parameters

xnand_282 
+ gnd vdd predecode_1[5] predecode_55[9] decode_b[89] 