* Substrate SPICE library
* This is a generated file. Be careful when editing manually: this file may be overwritten.


.SUBCKT sky130_fd_sc_hs__mux2_4 A0 A1 S VGND VNB VPB VPWR X

  X0 a_27_368# S VPWR VPB sky130_fd_pr__pfet_01v8 l=0.150 nf=1 w=1.000

  X1 a_722_391# A0 a_193_241# VPB sky130_fd_pr__pfet_01v8 l=0.150 nf=1 w=1.000

  X2 a_722_391# S VPWR VPB sky130_fd_pr__pfet_01v8 l=0.150 nf=1 w=1.000

  X3 VGND a_27_368# a_937_119# VNB sky130_fd_pr__nfet_01v8_lvt l=0.150 nf=1 w=0.640

  X4 a_193_241# A1 a_936_391# VPB sky130_fd_pr__pfet_01v8 l=0.150 nf=1 w=1.000

  X5 a_709_119# S VGND VNB sky130_fd_pr__nfet_01v8_lvt l=0.150 nf=1 w=0.640

  X6 a_709_119# A1 a_193_241# VNB sky130_fd_pr__nfet_01v8_lvt l=0.150 nf=1 w=0.640

  X7 X a_193_241# VGND VNB sky130_fd_pr__nfet_01v8_lvt l=0.150 nf=1 w=0.740

  X8 X a_193_241# VPWR VPB sky130_fd_pr__pfet_01v8 l=0.150 nf=1 w=1.120

  X9 VPWR a_27_368# a_936_391# VPB sky130_fd_pr__pfet_01v8 l=0.150 nf=1 w=1.000

  X10 X a_193_241# VGND VNB sky130_fd_pr__nfet_01v8_lvt l=0.150 nf=1 w=0.740

  X11 a_193_241# A0 a_722_391# VPB sky130_fd_pr__pfet_01v8 l=0.150 nf=1 w=1.000

  X12 a_937_119# A0 a_193_241# VNB sky130_fd_pr__nfet_01v8_lvt l=0.150 nf=1 w=0.640

  X13 a_936_391# a_27_368# VPWR VPB sky130_fd_pr__pfet_01v8 l=0.150 nf=1 w=1.000

  X14 VGND a_193_241# X VNB sky130_fd_pr__nfet_01v8_lvt l=0.150 nf=1 w=0.740

  X15 VPWR a_193_241# X VPB sky130_fd_pr__pfet_01v8 l=0.150 nf=1 w=1.120

  X16 VPWR S a_722_391# VPB sky130_fd_pr__pfet_01v8 l=0.150 nf=1 w=1.000

  X17 a_936_391# A1 a_193_241# VPB sky130_fd_pr__pfet_01v8 l=0.150 nf=1 w=1.000

  X18 a_193_241# A0 a_937_119# VNB sky130_fd_pr__nfet_01v8_lvt l=0.150 nf=1 w=0.640

  X19 a_193_241# A1 a_709_119# VNB sky130_fd_pr__nfet_01v8_lvt l=0.150 nf=1 w=0.640

  X20 X a_193_241# VPWR VPB sky130_fd_pr__pfet_01v8 l=0.150 nf=1 w=1.120

  X21 VGND a_193_241# X VNB sky130_fd_pr__nfet_01v8_lvt l=0.150 nf=1 w=0.740

  X22 a_27_368# S VGND VNB sky130_fd_pr__nfet_01v8_lvt l=0.150 nf=1 w=0.640

  X23 a_937_119# a_27_368# VGND VNB sky130_fd_pr__nfet_01v8_lvt l=0.150 nf=1 w=0.640

  X24 VPWR a_193_241# X VPB sky130_fd_pr__pfet_01v8 l=0.150 nf=1 w=1.120

  X25 VGND S a_709_119# VNB sky130_fd_pr__nfet_01v8_lvt l=0.150 nf=1 w=0.640


.ENDS sky130_fd_sc_hs__mux2_4

.SUBCKT sky130_fd_sc_hs__inv_2 A VGND VNB VPB VPWR Y

  X0 Y A VPWR VPB sky130_fd_pr__pfet_01v8 l=0.150 nf=1 w=1.120

  X1 VPWR A Y VPB sky130_fd_pr__pfet_01v8 l=0.150 nf=1 w=1.120

  X2 VGND A Y VNB sky130_fd_pr__nfet_01v8_lvt l=0.150 nf=1 w=0.740

  X3 Y A VGND VNB sky130_fd_pr__nfet_01v8_lvt l=0.150 nf=1 w=0.740


.ENDS sky130_fd_sc_hs__inv_2

.SUBCKT sram_sp_horiz_wlstrap_p2 VSS VNB

  X0 VSS VSS VSS VNB sky130_fd_pr__nfet_01v8 l=0.150 nf=1 w=0.420


.ENDS sram_sp_horiz_wlstrap_p2

.SUBCKT sram_sp_rowtapend_replica VSS VNB

  X0 VSS VSS VSS VNB sky130_fd_pr__nfet_01v8 l=0.150 nf=1 w=0.420


.ENDS sram_sp_rowtapend_replica

.SUBCKT sky130_fd_sc_hs__buf_16 A VGND VNB VPB VPWR X

  X0 VPWR a_83_260# X VPB sky130_fd_pr__pfet_01v8 l=0.150 nf=1 w=1.120

  X1 VPWR a_83_260# X VPB sky130_fd_pr__pfet_01v8 l=0.150 nf=1 w=1.120

  X2 X a_83_260# VGND VNB sky130_fd_pr__nfet_01v8_lvt l=0.150 nf=1 w=0.740

  X3 VPWR a_83_260# X VPB sky130_fd_pr__pfet_01v8 l=0.150 nf=1 w=1.120

  X4 VPWR A a_83_260# VPB sky130_fd_pr__pfet_01v8 l=0.150 nf=1 w=1.120

  X5 X a_83_260# VGND VNB sky130_fd_pr__nfet_01v8_lvt l=0.150 nf=1 w=0.740

  X6 VPWR a_83_260# X VPB sky130_fd_pr__pfet_01v8 l=0.150 nf=1 w=1.120

  X7 VPWR A a_83_260# VPB sky130_fd_pr__pfet_01v8 l=0.150 nf=1 w=1.120

  X8 VGND a_83_260# X VNB sky130_fd_pr__nfet_01v8_lvt l=0.150 nf=1 w=0.740

  X9 VGND a_83_260# X VNB sky130_fd_pr__nfet_01v8_lvt l=0.150 nf=1 w=0.740

  X10 VPWR A a_83_260# VPB sky130_fd_pr__pfet_01v8 l=0.150 nf=1 w=1.120

  X11 VGND a_83_260# X VNB sky130_fd_pr__nfet_01v8_lvt l=0.150 nf=1 w=0.740

  X12 VPWR a_83_260# X VPB sky130_fd_pr__pfet_01v8 l=0.150 nf=1 w=1.120

  X13 a_83_260# A VPWR VPB sky130_fd_pr__pfet_01v8 l=0.150 nf=1 w=1.120

  X14 VPWR a_83_260# X VPB sky130_fd_pr__pfet_01v8 l=0.150 nf=1 w=1.120

  X15 VGND a_83_260# X VNB sky130_fd_pr__nfet_01v8_lvt l=0.150 nf=1 w=0.740

  X16 VGND A a_83_260# VNB sky130_fd_pr__nfet_01v8_lvt l=0.150 nf=1 w=0.740

  X17 X a_83_260# VGND VNB sky130_fd_pr__nfet_01v8_lvt l=0.150 nf=1 w=0.740

  X18 X a_83_260# VPWR VPB sky130_fd_pr__pfet_01v8 l=0.150 nf=1 w=1.120

  X19 X a_83_260# VGND VNB sky130_fd_pr__nfet_01v8_lvt l=0.150 nf=1 w=0.740

  X20 X a_83_260# VGND VNB sky130_fd_pr__nfet_01v8_lvt l=0.150 nf=1 w=0.740

  X21 X a_83_260# VPWR VPB sky130_fd_pr__pfet_01v8 l=0.150 nf=1 w=1.120

  X22 VGND A a_83_260# VNB sky130_fd_pr__nfet_01v8_lvt l=0.150 nf=1 w=0.740

  X23 VGND a_83_260# X VNB sky130_fd_pr__nfet_01v8_lvt l=0.150 nf=1 w=0.740

  X24 X a_83_260# VPWR VPB sky130_fd_pr__pfet_01v8 l=0.150 nf=1 w=1.120

  X25 a_83_260# A VGND VNB sky130_fd_pr__nfet_01v8_lvt l=0.150 nf=1 w=0.740

  X26 X a_83_260# VPWR VPB sky130_fd_pr__pfet_01v8 l=0.150 nf=1 w=1.120

  X27 a_83_260# A VGND VNB sky130_fd_pr__nfet_01v8_lvt l=0.150 nf=1 w=0.740

  X28 VPWR a_83_260# X VPB sky130_fd_pr__pfet_01v8 l=0.150 nf=1 w=1.120

  X29 a_83_260# A VPWR VPB sky130_fd_pr__pfet_01v8 l=0.150 nf=1 w=1.120

  X30 VGND a_83_260# X VNB sky130_fd_pr__nfet_01v8_lvt l=0.150 nf=1 w=0.740

  X31 X a_83_260# VPWR VPB sky130_fd_pr__pfet_01v8 l=0.150 nf=1 w=1.120

  X32 a_83_260# A VPWR VPB sky130_fd_pr__pfet_01v8 l=0.150 nf=1 w=1.120

  X33 X a_83_260# VPWR VPB sky130_fd_pr__pfet_01v8 l=0.150 nf=1 w=1.120

  X34 VGND a_83_260# X VNB sky130_fd_pr__nfet_01v8_lvt l=0.150 nf=1 w=0.740

  X35 a_83_260# A VGND VNB sky130_fd_pr__nfet_01v8_lvt l=0.150 nf=1 w=0.740

  X36 VGND a_83_260# X VNB sky130_fd_pr__nfet_01v8_lvt l=0.150 nf=1 w=0.740

  X37 VGND A a_83_260# VNB sky130_fd_pr__nfet_01v8_lvt l=0.150 nf=1 w=0.740

  X38 X a_83_260# VPWR VPB sky130_fd_pr__pfet_01v8 l=0.150 nf=1 w=1.120

  X39 X a_83_260# VGND VNB sky130_fd_pr__nfet_01v8_lvt l=0.150 nf=1 w=0.740

  X40 VPWR a_83_260# X VPB sky130_fd_pr__pfet_01v8 l=0.150 nf=1 w=1.120

  X41 X a_83_260# VPWR VPB sky130_fd_pr__pfet_01v8 l=0.150 nf=1 w=1.120

  X42 X a_83_260# VGND VNB sky130_fd_pr__nfet_01v8_lvt l=0.150 nf=1 w=0.740

  X43 X a_83_260# VGND VNB sky130_fd_pr__nfet_01v8_lvt l=0.150 nf=1 w=0.740


.ENDS sky130_fd_sc_hs__buf_16

.SUBCKT mos_w700_l150_m1_nf1_id1 d g s b

  X0 d g s b sky130_fd_pr__pfet_01v8 l=0.150 nf=1 w=0.700


.ENDS mos_w700_l150_m1_nf1_id1

.SUBCKT mos_w700_l150_m1_nf1_id0 d g s b

  X0 d g s b sky130_fd_pr__nfet_01v8 l=0.150 nf=1 w=0.700


.ENDS mos_w700_l150_m1_nf1_id0

.SUBCKT multi_finger_inv_12 vdd vss a y

  XMP0 y a vdd vdd mos_w700_l150_m1_nf1_id1
  XMP1 y a vdd vdd mos_w700_l150_m1_nf1_id1
  XMP2 y a vdd vdd mos_w700_l150_m1_nf1_id1
  XMP3 y a vdd vdd mos_w700_l150_m1_nf1_id1
  XMP4 y a vdd vdd mos_w700_l150_m1_nf1_id1
  XMP5 y a vdd vdd mos_w700_l150_m1_nf1_id1
  XMP6 y a vdd vdd mos_w700_l150_m1_nf1_id1
  XMP7 y a vdd vdd mos_w700_l150_m1_nf1_id1
  XMP8 y a vdd vdd mos_w700_l150_m1_nf1_id1
  XMP9 y a vdd vdd mos_w700_l150_m1_nf1_id1
  XMP10 y a vdd vdd mos_w700_l150_m1_nf1_id1
  XMP11 y a vdd vdd mos_w700_l150_m1_nf1_id1
  XMP12 y a vdd vdd mos_w700_l150_m1_nf1_id1
  XMP13 y a vdd vdd mos_w700_l150_m1_nf1_id1
  XMP14 y a vdd vdd mos_w700_l150_m1_nf1_id1
  XMP15 y a vdd vdd mos_w700_l150_m1_nf1_id1
  XMP16 y a vdd vdd mos_w700_l150_m1_nf1_id1
  XMP17 y a vdd vdd mos_w700_l150_m1_nf1_id1
  XMP18 y a vdd vdd mos_w700_l150_m1_nf1_id1
  XMP19 y a vdd vdd mos_w700_l150_m1_nf1_id1
  XMP20 y a vdd vdd mos_w700_l150_m1_nf1_id1
  XMP21 y a vdd vdd mos_w700_l150_m1_nf1_id1
  XMP22 y a vdd vdd mos_w700_l150_m1_nf1_id1
  XMP23 y a vdd vdd mos_w700_l150_m1_nf1_id1
  XMP24 y a vdd vdd mos_w700_l150_m1_nf1_id1
  XMP25 y a vdd vdd mos_w700_l150_m1_nf1_id1
  XMP26 y a vdd vdd mos_w700_l150_m1_nf1_id1
  XMP27 y a vdd vdd mos_w700_l150_m1_nf1_id1
  XMP28 y a vdd vdd mos_w700_l150_m1_nf1_id1
  XMP29 y a vdd vdd mos_w700_l150_m1_nf1_id1
  XMP30 y a vdd vdd mos_w700_l150_m1_nf1_id1
  XMP31 y a vdd vdd mos_w700_l150_m1_nf1_id1
  XMP32 y a vdd vdd mos_w700_l150_m1_nf1_id1
  XMP33 y a vdd vdd mos_w700_l150_m1_nf1_id1
  XMP34 y a vdd vdd mos_w700_l150_m1_nf1_id1
  XMP35 y a vdd vdd mos_w700_l150_m1_nf1_id1
  XMP36 y a vdd vdd mos_w700_l150_m1_nf1_id1
  XMP37 y a vdd vdd mos_w700_l150_m1_nf1_id1
  XMP38 y a vdd vdd mos_w700_l150_m1_nf1_id1
  XMP39 y a vdd vdd mos_w700_l150_m1_nf1_id1
  XMP40 y a vdd vdd mos_w700_l150_m1_nf1_id1
  XMP41 y a vdd vdd mos_w700_l150_m1_nf1_id1
  XMP42 y a vdd vdd mos_w700_l150_m1_nf1_id1
  XMP43 y a vdd vdd mos_w700_l150_m1_nf1_id1
  XMP44 y a vdd vdd mos_w700_l150_m1_nf1_id1
  XMP45 y a vdd vdd mos_w700_l150_m1_nf1_id1
  XMP46 y a vdd vdd mos_w700_l150_m1_nf1_id1
  XMP47 y a vdd vdd mos_w700_l150_m1_nf1_id1
  XMP48 y a vdd vdd mos_w700_l150_m1_nf1_id1
  XMP49 y a vdd vdd mos_w700_l150_m1_nf1_id1
  XMP50 y a vdd vdd mos_w700_l150_m1_nf1_id1
  XMP51 y a vdd vdd mos_w700_l150_m1_nf1_id1
  XMP52 y a vdd vdd mos_w700_l150_m1_nf1_id1
  XMP53 y a vdd vdd mos_w700_l150_m1_nf1_id1
  XMP54 y a vdd vdd mos_w700_l150_m1_nf1_id1
  XMP55 y a vdd vdd mos_w700_l150_m1_nf1_id1
  XMP56 y a vdd vdd mos_w700_l150_m1_nf1_id1
  XMP57 y a vdd vdd mos_w700_l150_m1_nf1_id1
  XMP58 y a vdd vdd mos_w700_l150_m1_nf1_id1
  XMP59 y a vdd vdd mos_w700_l150_m1_nf1_id1
  XMP60 y a vdd vdd mos_w700_l150_m1_nf1_id1
  XMP61 y a vdd vdd mos_w700_l150_m1_nf1_id1
  XMP62 y a vdd vdd mos_w700_l150_m1_nf1_id1
  XMP63 y a vdd vdd mos_w700_l150_m1_nf1_id1
  XMP64 y a vdd vdd mos_w700_l150_m1_nf1_id1
  XMP65 y a vdd vdd mos_w700_l150_m1_nf1_id1
  XMP66 y a vdd vdd mos_w700_l150_m1_nf1_id1
  XMP67 y a vdd vdd mos_w700_l150_m1_nf1_id1
  XMP68 y a vdd vdd mos_w700_l150_m1_nf1_id1
  XMP69 y a vdd vdd mos_w700_l150_m1_nf1_id1
  XMP70 y a vdd vdd mos_w700_l150_m1_nf1_id1
  XMP71 y a vdd vdd mos_w700_l150_m1_nf1_id1
  XMP72 y a vdd vdd mos_w700_l150_m1_nf1_id1
  XMP73 y a vdd vdd mos_w700_l150_m1_nf1_id1
  XMP74 y a vdd vdd mos_w700_l150_m1_nf1_id1
  XMP75 y a vdd vdd mos_w700_l150_m1_nf1_id1
  XMP76 y a vdd vdd mos_w700_l150_m1_nf1_id1
  XMP77 y a vdd vdd mos_w700_l150_m1_nf1_id1
  XMP78 y a vdd vdd mos_w700_l150_m1_nf1_id1
  XMN0 y a vss vss mos_w700_l150_m1_nf1_id0
  XMN1 y a vss vss mos_w700_l150_m1_nf1_id0
  XMN2 y a vss vss mos_w700_l150_m1_nf1_id0
  XMN3 y a vss vss mos_w700_l150_m1_nf1_id0
  XMN4 y a vss vss mos_w700_l150_m1_nf1_id0
  XMN5 y a vss vss mos_w700_l150_m1_nf1_id0
  XMN6 y a vss vss mos_w700_l150_m1_nf1_id0
  XMN7 y a vss vss mos_w700_l150_m1_nf1_id0
  XMN8 y a vss vss mos_w700_l150_m1_nf1_id0
  XMN9 y a vss vss mos_w700_l150_m1_nf1_id0
  XMN10 y a vss vss mos_w700_l150_m1_nf1_id0
  XMN11 y a vss vss mos_w700_l150_m1_nf1_id0
  XMN12 y a vss vss mos_w700_l150_m1_nf1_id0
  XMN13 y a vss vss mos_w700_l150_m1_nf1_id0
  XMN14 y a vss vss mos_w700_l150_m1_nf1_id0
  XMN15 y a vss vss mos_w700_l150_m1_nf1_id0
  XMN16 y a vss vss mos_w700_l150_m1_nf1_id0
  XMN17 y a vss vss mos_w700_l150_m1_nf1_id0
  XMN18 y a vss vss mos_w700_l150_m1_nf1_id0
  XMN19 y a vss vss mos_w700_l150_m1_nf1_id0
  XMN20 y a vss vss mos_w700_l150_m1_nf1_id0
  XMN21 y a vss vss mos_w700_l150_m1_nf1_id0
  XMN22 y a vss vss mos_w700_l150_m1_nf1_id0
  XMN23 y a vss vss mos_w700_l150_m1_nf1_id0
  XMN24 y a vss vss mos_w700_l150_m1_nf1_id0
  XMN25 y a vss vss mos_w700_l150_m1_nf1_id0
  XMN26 y a vss vss mos_w700_l150_m1_nf1_id0
  XMN27 y a vss vss mos_w700_l150_m1_nf1_id0
  XMN28 y a vss vss mos_w700_l150_m1_nf1_id0
  XMN29 y a vss vss mos_w700_l150_m1_nf1_id0
  XMN30 y a vss vss mos_w700_l150_m1_nf1_id0
  XMN31 y a vss vss mos_w700_l150_m1_nf1_id0

.ENDS multi_finger_inv_12

.SUBCKT multi_finger_inv_15 vdd vss a y

  XMP0 y a vdd vdd mos_w700_l150_m1_nf1_id1
  XMP1 y a vdd vdd mos_w700_l150_m1_nf1_id1
  XMP2 y a vdd vdd mos_w700_l150_m1_nf1_id1
  XMP3 y a vdd vdd mos_w700_l150_m1_nf1_id1
  XMP4 y a vdd vdd mos_w700_l150_m1_nf1_id1
  XMP5 y a vdd vdd mos_w700_l150_m1_nf1_id1
  XMN0 y a vss vss mos_w700_l150_m1_nf1_id0
  XMN1 y a vss vss mos_w700_l150_m1_nf1_id0
  XMN2 y a vss vss mos_w700_l150_m1_nf1_id0

.ENDS multi_finger_inv_15

.SUBCKT mos_w800_l150_m1_nf1_id1 d g s b

  X0 d g s b sky130_fd_pr__pfet_01v8 l=0.150 nf=1 w=0.800


.ENDS mos_w800_l150_m1_nf1_id1

.SUBCKT mos_w1000_l150_m1_nf1_id0 d g s b

  X0 d g s b sky130_fd_pr__nfet_01v8 l=0.150 nf=1 w=1.000


.ENDS mos_w1000_l150_m1_nf1_id0

.SUBCKT sky130_fd_sc_hs__mux2_4_wrapper A0 A1 S VGND VNB VPB VPWR X

  X0 A0 A1 S VGND VNB VPB VPWR X sky130_fd_sc_hs__mux2_4

.ENDS sky130_fd_sc_hs__mux2_4_wrapper

.SUBCKT sky130_fd_sc_hs__nand2_4 A B VGND VNB VPB VPWR Y

  X0 VPWR A Y VPB sky130_fd_pr__pfet_01v8 l=0.150 nf=1 w=1.120

  X1 Y A a_27_74# VNB sky130_fd_pr__nfet_01v8_lvt l=0.150 nf=1 w=0.740

  X2 a_27_74# B VGND VNB sky130_fd_pr__nfet_01v8_lvt l=0.150 nf=1 w=0.740

  X3 VGND B a_27_74# VNB sky130_fd_pr__nfet_01v8_lvt l=0.150 nf=1 w=0.740

  X4 VGND B a_27_74# VNB sky130_fd_pr__nfet_01v8_lvt l=0.150 nf=1 w=0.740

  X5 a_27_74# A Y VNB sky130_fd_pr__nfet_01v8_lvt l=0.150 nf=1 w=0.740

  X6 Y A a_27_74# VNB sky130_fd_pr__nfet_01v8_lvt l=0.150 nf=1 w=0.740

  X7 VPWR B Y VPB sky130_fd_pr__pfet_01v8 l=0.150 nf=1 w=1.120

  X8 Y B VPWR VPB sky130_fd_pr__pfet_01v8 l=0.150 nf=1 w=1.120

  X9 a_27_74# A Y VNB sky130_fd_pr__nfet_01v8_lvt l=0.150 nf=1 w=0.740

  X10 Y A VPWR VPB sky130_fd_pr__pfet_01v8 l=0.150 nf=1 w=1.120

  X11 a_27_74# B VGND VNB sky130_fd_pr__nfet_01v8_lvt l=0.150 nf=1 w=0.740


.ENDS sky130_fd_sc_hs__nand2_4

.SUBCKT sky130_fd_sc_hs__nand2_4_wrapper A B VGND VNB VPB VPWR Y

  X0 A B VGND VNB VPB VPWR Y sky130_fd_sc_hs__nand2_4

.ENDS sky130_fd_sc_hs__nand2_4_wrapper

.SUBCKT mos_w3800_l150_m1_nf1_id1 d g s b

  X0 d g s b sky130_fd_pr__pfet_01v8 l=0.150 nf=1 w=3.800


.ENDS mos_w3800_l150_m1_nf1_id1

.SUBCKT mos_w1530_l150_m1_nf1_id0 d g s b

  X0 d g s b sky130_fd_pr__nfet_01v8 l=0.150 nf=1 w=1.530


.ENDS mos_w1530_l150_m1_nf1_id0

.SUBCKT folded_inv_4 vdd vss a y

  XMP0 y a vdd vdd mos_w3800_l150_m1_nf1_id1
  XMN0 y a vss vss mos_w1530_l150_m1_nf1_id0
  XMP1 y a vdd vdd mos_w3800_l150_m1_nf1_id1
  XMN1 y a vss vss mos_w1530_l150_m1_nf1_id0

.ENDS folded_inv_4

.SUBCKT mos_w1250_l150_m1_nf1_id1 d g s b

  X0 d g s b sky130_fd_pr__pfet_01v8 l=0.150 nf=1 w=1.250


.ENDS mos_w1250_l150_m1_nf1_id1

.SUBCKT mos_w500_l150_m1_nf1_id0 d g s b

  X0 d g s b sky130_fd_pr__nfet_01v8 l=0.150 nf=1 w=0.500


.ENDS mos_w500_l150_m1_nf1_id0

.SUBCKT folded_inv vdd vss a y

  XMP0 y a vdd vdd mos_w1250_l150_m1_nf1_id1
  XMN0 y a vss vss mos_w500_l150_m1_nf1_id0
  XMP1 y a vdd vdd mos_w1250_l150_m1_nf1_id1
  XMN1 y a vss vss mos_w500_l150_m1_nf1_id0

.ENDS folded_inv

.SUBCKT sramgen_svt_inv_4 A VGND VNB VPB VPWR Y

  X0 VGND A Y VNB sky130_fd_pr__nfet_01v8 l=0.150 nf=1 w=0.740

  X1 VPWR A Y VPB sky130_fd_pr__pfet_01v8 l=0.150 nf=1 w=1.120

  X2 VPWR A Y VPB sky130_fd_pr__pfet_01v8 l=0.150 nf=1 w=1.120

  X3 VGND A Y VNB sky130_fd_pr__nfet_01v8 l=0.150 nf=1 w=0.740

  X4 Y A VGND VNB sky130_fd_pr__nfet_01v8 l=0.150 nf=1 w=0.740

  X5 Y A VPWR VPB sky130_fd_pr__pfet_01v8 l=0.150 nf=1 w=1.120

  X6 Y A VPWR VPB sky130_fd_pr__pfet_01v8 l=0.150 nf=1 w=1.120

  X7 Y A VGND VNB sky130_fd_pr__nfet_01v8 l=0.150 nf=1 w=0.740


.ENDS sramgen_svt_inv_4

.SUBCKT sramgen_svt_inv_4_wrapper A VGND VNB VPB VPWR Y

  X0 A VGND VNB VPB VPWR Y sramgen_svt_inv_4

.ENDS sramgen_svt_inv_4_wrapper

.SUBCKT sram_sp_cell_replica BL BR VSS VDD VPB VNB WL

  X0 VDD WL BR VNB sky130_fd_pr__special_nfet_pass l=0.150 nf=1 w=0.140

  X1 Q VDD VSS VNB sky130_fd_pr__special_nfet_latch l=0.150 nf=1 w=0.210

  X2 BL WL Q VNB sky130_fd_pr__special_nfet_pass l=0.150 nf=1 w=0.140

  X3 Q WL Q VPB sky130_fd_pr__special_pfet_pass l=0.025 nf=1 w=0.140

  X4 VDD WL VDD VPB sky130_fd_pr__special_pfet_pass l=0.025 nf=1 w=0.140

  X5 VDD Q VDD VPB sky130_fd_pr__special_pfet_pass l=0.150 nf=1 w=0.140

  X6 Q VDD VDD VPB sky130_fd_pr__special_pfet_pass l=0.150 nf=1 w=0.140

  X7 VSS Q VDD VNB sky130_fd_pr__special_nfet_latch l=0.150 nf=1 w=0.210


.ENDS sram_sp_cell_replica

.SUBCKT sram_sp_cell_replica_wrapper BL BR VSS VDD VPB VNB WL

  X0 BL BR VSS VDD VPB VNB WL sram_sp_cell_replica

.ENDS sram_sp_cell_replica_wrapper

.SUBCKT sky130_fd_sc_hs__inv_2_wrapper A VGND VNB VPB VPWR Y

  X0 A VGND VNB VPB VPWR Y sky130_fd_sc_hs__inv_2

.ENDS sky130_fd_sc_hs__inv_2_wrapper

.SUBCKT sram_sp_hstrap BR VDD VSS BL VNB VPB

  X0 BL VNB BL VNB sky130_fd_pr__special_nfet_pass l=0.140 nf=1 w=0.140

  X1 BL VNB BL VNB sky130_fd_pr__special_nfet_pass l=0.140 nf=1 w=0.140


.ENDS sram_sp_hstrap

.SUBCKT sram_sp_hstrap_wrapper BR VDD VSS BL VNB VPB

  X0 BR VDD VSS BL VNB VPB sram_sp_hstrap

.ENDS sram_sp_hstrap_wrapper

.SUBCKT mos_w1050_l150_m1_nf1_id0 d g s b

  X0 d g s b sky130_fd_pr__nfet_01v8 l=0.150 nf=1 w=1.050


.ENDS mos_w1050_l150_m1_nf1_id0

.SUBCKT mos_w2000_l150_m1_nf1_id0 d g s b

  X0 d g s b sky130_fd_pr__nfet_01v8 l=0.150 nf=1 w=2.000


.ENDS mos_w2000_l150_m1_nf1_id0

.SUBCKT mos_w2500_l150_m1_nf1_id1 d g s b

  X0 d g s b sky130_fd_pr__pfet_01v8 l=0.150 nf=1 w=2.500


.ENDS mos_w2500_l150_m1_nf1_id1

.SUBCKT nand2 vdd vss a b y

  Xn1 x a vss vss mos_w2000_l150_m1_nf1_id0
  Xn2 y b x vss mos_w2000_l150_m1_nf1_id0
  Xp1 y a vdd vdd mos_w2500_l150_m1_nf1_id1
  Xp2 y b vdd vdd mos_w2500_l150_m1_nf1_id1

.ENDS nand2

.SUBCKT mos_w5000_l150_m1_nf1_id1 d g s b

  X0 d g s b sky130_fd_pr__pfet_01v8 l=0.150 nf=1 w=5.000


.ENDS mos_w5000_l150_m1_nf1_id1

.SUBCKT folded_inv_1 vdd vss a y

  XMP0 y a vdd vdd mos_w5000_l150_m1_nf1_id1
  XMN0 y a vss vss mos_w2000_l150_m1_nf1_id0
  XMP1 y a vdd vdd mos_w5000_l150_m1_nf1_id1
  XMN1 y a vss vss mos_w2000_l150_m1_nf1_id0

.ENDS folded_inv_1

.SUBCKT and2 vdd a b y yb vss

  X0 vdd vss a b yb nand2
  X0_1 vdd vss yb y folded_inv_1

.ENDS and2

.SUBCKT mos_w2600_l150_m1_nf1_id1 d g s b

  X0 d g s b sky130_fd_pr__pfet_01v8 l=0.150 nf=1 w=2.600


.ENDS mos_w2600_l150_m1_nf1_id1

.SUBCKT mos_w1550_l150_m1_nf1_id1 d g s b

  X0 d g s b sky130_fd_pr__pfet_01v8 l=0.150 nf=1 w=1.550


.ENDS mos_w1550_l150_m1_nf1_id1

.SUBCKT precharge_1 vdd bl br en_b

  Xbl_pull_up bl en_b vdd vdd mos_w2600_l150_m1_nf1_id1
  Xbr_pull_up br en_b vdd vdd mos_w2600_l150_m1_nf1_id1
  Xequalizer bl en_b br vdd mos_w1550_l150_m1_nf1_id1

.ENDS precharge_1

.SUBCKT mos_w3650_l150_m1_nf1_id1 d g s b

  X0 d g s b sky130_fd_pr__pfet_01v8 l=0.150 nf=1 w=3.650


.ENDS mos_w3650_l150_m1_nf1_id1

.SUBCKT mos_w2400_l150_m1_nf1_id0 d g s b

  X0 d g s b sky130_fd_pr__nfet_01v8 l=0.150 nf=1 w=2.400


.ENDS mos_w2400_l150_m1_nf1_id0

.SUBCKT tgate_mux sel_b sel bl br bl_out br_out vdd vss

  XMPBL bl_out sel_b bl vdd mos_w3650_l150_m1_nf1_id1
  XMPBR br_out sel_b br vdd mos_w3650_l150_m1_nf1_id1
  XMNBL bl_out sel bl vss mos_w2400_l150_m1_nf1_id0
  XMNBR br_out sel br vss mos_w2400_l150_m1_nf1_id0

.ENDS tgate_mux

.SUBCKT mos_w2600_l150_m1_nf1_id0 d g s b

  X0 d g s b sky130_fd_pr__nfet_01v8 l=0.150 nf=1 w=2.600


.ENDS mos_w2600_l150_m1_nf1_id0

.SUBCKT tristate_inv din en en_b din_b vdd vss

  Xmn_en din_b en nint vss mos_w2600_l150_m1_nf1_id0
  Xmn_pd nint din vss vss mos_w2600_l150_m1_nf1_id0
  Xmp_en din_b en_b pint vdd mos_w2600_l150_m1_nf1_id1
  Xmp_pu pint din vdd vdd mos_w2600_l150_m1_nf1_id1

.ENDS tristate_inv

.SUBCKT write_driver en en_b data data_b bl br vdd vss

  Xbldriver data_b en en_b bl vdd vss tristate_inv
  Xbrdriver data en en_b br vdd vss tristate_inv

.ENDS write_driver

.SUBCKT sramgen_sp_sense_amp clk inn inp outn outp VDD VSS

  XSWOP outp clk VDD VDD sky130_fd_pr__pfet_01v8 l=0.150 nf=2 w=1.000

  XSWON outn clk VDD VDD sky130_fd_pr__pfet_01v8 l=0.150 nf=2 w=1.000

  XSWMP midp clk VDD VDD sky130_fd_pr__pfet_01v8 l=0.150 nf=2 w=1.000

  XSWMN midn clk VDD VDD sky130_fd_pr__pfet_01v8 l=0.150 nf=2 w=1.000

  XPFBP outp outn VDD VDD sky130_fd_pr__pfet_01v8 l=0.150 nf=2 w=2.000

  XPFBN outn outp VDD VDD sky130_fd_pr__pfet_01v8 l=0.150 nf=2 w=2.000

  XTAIL tail clk VSS VSS sky130_fd_pr__nfet_01v8 l=0.150 nf=4 w=1.680

  XNFBP outp outn midp VSS sky130_fd_pr__nfet_01v8 l=0.150 nf=2 w=1.680

  XNFBN outn outp midn VSS sky130_fd_pr__nfet_01v8 l=0.150 nf=2 w=1.680

  XINP midn inp tail VSS sky130_fd_pr__nfet_01v8 l=0.150 nf=2 w=1.680

  XINN midp inn tail VSS sky130_fd_pr__nfet_01v8 l=0.150 nf=2 w=1.680


.ENDS sramgen_sp_sense_amp

.SUBCKT sramgen_sp_sense_amp_wrapper clk inn inp outn outp VDD VSS

  X0 clk inn inp outn outp VDD VSS sramgen_sp_sense_amp

.ENDS sramgen_sp_sense_amp_wrapper

.SUBCKT mos_w1000_l150_m1_nf1_id1 d g s b

  X0 d g s b sky130_fd_pr__pfet_01v8 l=0.150 nf=1 w=1.000


.ENDS mos_w1000_l150_m1_nf1_id1

.SUBCKT mos_w600_l150_m1_nf1_id0 d g s b

  X0 d g s b sky130_fd_pr__nfet_01v8 l=0.150 nf=1 w=0.600


.ENDS mos_w600_l150_m1_nf1_id0

.SUBCKT folded_inv_6 vdd vss a y

  XMP0 y a vdd vdd mos_w1000_l150_m1_nf1_id1
  XMN0 y a vss vss mos_w600_l150_m1_nf1_id0
  XMP1 y a vdd vdd mos_w1000_l150_m1_nf1_id1
  XMN1 y a vss vss mos_w600_l150_m1_nf1_id0

.ENDS folded_inv_6

.SUBCKT diff_latch vdd vss din1 din2 dout1 dout2

  Xinbuf_1 vdd vss din1 rst folded_inv_6
  Xinbuf_2 vdd vss din2 set folded_inv_6
  Xoutbuf_1 vdd vss q dout2 folded_inv_6
  Xoutbuf_2 vdd vss qb dout1 folded_inv_6
  Xinvq_1 vdd vss q qb folded_inv_6
  Xinvq_2 vdd vss qb q folded_inv_6
  XMN10 q rst vss vss mos_w1000_l150_m1_nf1_id0
  XMN11 q rst vss vss mos_w1000_l150_m1_nf1_id0
  XMN20 qb set vss vss mos_w1000_l150_m1_nf1_id0
  XMN21 qb set vss vss mos_w1000_l150_m1_nf1_id0

.ENDS diff_latch

.SUBCKT sky130_fd_sc_hs__dfrbp_2 CLK D RESET_B VGND VNB VPB VPWR Q Q_N

  X0 a_1800_291# a_1586_149# VPWR VPB sky130_fd_pr__pfet_01v8 l=0.150 nf=1 w=0.420

  X1 VGND CLK a_728_331# VNB sky130_fd_pr__nfet_01v8_lvt l=0.150 nf=1 w=0.740

  X2 Q a_2363_352# VGND VNB sky130_fd_pr__nfet_01v8_lvt l=0.150 nf=1 w=0.740

  X3 VPWR CLK a_728_331# VPB sky130_fd_pr__pfet_01v8 l=0.150 nf=1 w=1.120

  X4 a_1499_149# a_728_331# a_1586_149# VNB sky130_fd_pr__nfet_01v8_lvt l=0.150 nf=1 w=0.420

  X5 a_536_81# a_331_392# a_614_81# VNB sky130_fd_pr__nfet_01v8_lvt l=0.150 nf=1 w=0.420

  X6 a_156_74# RESET_B VGND VNB sky130_fd_pr__nfet_01v8_lvt l=0.150 nf=1 w=0.420

  X7 a_298_294# a_818_418# a_614_81# VNB sky130_fd_pr__nfet_01v8_lvt l=0.150 nf=1 w=0.420

  X8 a_70_74# a_728_331# a_298_294# VNB sky130_fd_pr__nfet_01v8_lvt l=0.150 nf=1 w=0.420

  X9 a_331_392# a_728_331# a_1586_149# VPB sky130_fd_pr__pfet_01v8 l=0.150 nf=1 w=1.000

  X10 a_70_74# D a_156_74# VNB sky130_fd_pr__nfet_01v8_lvt l=0.150 nf=1 w=0.420

  X11 a_818_418# a_728_331# VGND VNB sky130_fd_pr__nfet_01v8_lvt l=0.150 nf=1 w=0.740

  X12 a_818_418# a_728_331# VPWR VPB sky130_fd_pr__pfet_01v8 l=0.150 nf=1 w=1.120

  X13 a_1586_149# a_818_418# a_1755_389# VPB sky130_fd_pr__pfet_01v8 l=0.150 nf=1 w=0.420

  X14 Q_N a_1586_149# VPWR VPB sky130_fd_pr__pfet_01v8 l=0.150 nf=1 w=1.120

  X15 a_298_294# a_818_418# a_70_74# VPB sky130_fd_pr__pfet_01v8 l=0.150 nf=1 w=0.420

  X16 VGND RESET_B a_536_81# VNB sky130_fd_pr__nfet_01v8_lvt l=0.150 nf=1 w=0.420

  X17 a_1755_389# a_1800_291# VPWR VPB sky130_fd_pr__pfet_01v8 l=0.150 nf=1 w=0.420

  X18 a_1586_149# a_818_418# a_331_392# VNB sky130_fd_pr__nfet_01v8_lvt l=0.150 nf=1 w=0.740

  X19 Q a_2363_352# VPWR VPB sky130_fd_pr__pfet_01v8 l=0.150 nf=1 w=1.120

  X20 VGND a_1586_149# Q_N VNB sky130_fd_pr__nfet_01v8_lvt l=0.150 nf=1 w=0.740

  X21 VGND a_1586_149# a_2363_352# VNB sky130_fd_pr__nfet_01v8_lvt l=0.150 nf=1 w=0.640

  X22 VPWR a_298_294# a_331_392# VPB sky130_fd_pr__pfet_01v8 l=0.150 nf=1 w=1.000

  X23 a_298_294# RESET_B VPWR VPB sky130_fd_pr__pfet_01v8 l=0.150 nf=1 w=0.420

  X24 a_1499_149# a_1800_291# VGND VNB sky130_fd_pr__nfet_01v8_lvt l=0.150 nf=1 w=0.420

  X25 VPWR a_331_392# a_683_485# VPB sky130_fd_pr__pfet_01v8 l=0.150 nf=1 w=0.420

  X26 VPWR D a_70_74# VPB sky130_fd_pr__pfet_01v8 l=0.150 nf=1 w=0.420

  X27 VPWR RESET_B a_1800_291# VPB sky130_fd_pr__pfet_01v8 l=0.150 nf=1 w=0.420

  X28 a_1974_74# a_1586_149# a_1800_291# VNB sky130_fd_pr__nfet_01v8_lvt l=0.150 nf=1 w=0.420

  X29 a_70_74# RESET_B VPWR VPB sky130_fd_pr__pfet_01v8 l=0.150 nf=1 w=0.420

  X30 Q_N a_1586_149# VGND VNB sky130_fd_pr__nfet_01v8_lvt l=0.150 nf=1 w=0.740

  X31 VPWR a_1586_149# a_2363_352# VPB sky130_fd_pr__pfet_01v8 l=0.150 nf=1 w=1.000

  X32 VGND a_2363_352# Q VNB sky130_fd_pr__nfet_01v8_lvt l=0.150 nf=1 w=0.740

  X33 VPWR a_1586_149# Q_N VPB sky130_fd_pr__pfet_01v8 l=0.150 nf=1 w=1.120

  X34 VGND RESET_B a_1974_74# VNB sky130_fd_pr__nfet_01v8_lvt l=0.150 nf=1 w=0.420

  X35 a_683_485# a_728_331# a_298_294# VPB sky130_fd_pr__pfet_01v8 l=0.150 nf=1 w=0.420

  X36 VGND a_298_294# a_331_392# VNB sky130_fd_pr__nfet_01v8_lvt l=0.150 nf=1 w=0.740

  X37 VPWR a_2363_352# Q VPB sky130_fd_pr__pfet_01v8 l=0.150 nf=1 w=1.120


.ENDS sky130_fd_sc_hs__dfrbp_2

.SUBCKT sky130_fd_sc_hs__dfrbp_2_wrapper CLK D RESET_B VGND VNB VPB VPWR Q Q_N

  X0 CLK D RESET_B VGND VNB VPB VPWR Q Q_N sky130_fd_sc_hs__dfrbp_2

.ENDS sky130_fd_sc_hs__dfrbp_2_wrapper

.SUBCKT column clk rstb vdd vss bl[0] bl[1] bl[2] bl[3] br[0] br[1] br[2] br[3] pc_b sel[0] sel[1] sel[2] sel[3] sel_b[0] sel_b[1] sel_b[2] sel_b[3] we we_b din dout sense_en

  Xprecharge_0 vdd bl[0] br[0] pc_b precharge_1
  Xmux_0 sel_b[0] sel[0] bl[0] br[0] bl_out br_out vdd vss tgate_mux
  Xprecharge_1 vdd bl[1] br[1] pc_b precharge_1
  Xmux_1 sel_b[1] sel[1] bl[1] br[1] bl_out br_out vdd vss tgate_mux
  Xprecharge_2 vdd bl[2] br[2] pc_b precharge_1
  Xmux_2 sel_b[2] sel[2] bl[2] br[2] bl_out br_out vdd vss tgate_mux
  Xprecharge_3 vdd bl[3] br[3] pc_b precharge_1
  Xmux_3 sel_b[3] sel[3] bl[3] br[3] bl_out br_out vdd vss tgate_mux
  Xwrite_driver we we_b q q_b bl_out br_out vdd vss write_driver
  Xsense_amp sense_en br_out bl_out sa_outn sa_outp vdd vss sramgen_sp_sense_amp_wrapper
  Xlatch vdd vss sa_outp sa_outn dout diff_latch_outn diff_latch
  Xdff clk din rstb vss vss vdd vdd q q_b sky130_fd_sc_hs__dfrbp_2_wrapper

.ENDS column

.SUBCKT sky130_fd_sc_hs__inv_4 A VGND VNB VPB VPWR Y

  X0 VGND A Y VNB sky130_fd_pr__nfet_01v8_lvt l=0.150 nf=1 w=0.740

  X1 VPWR A Y VPB sky130_fd_pr__pfet_01v8 l=0.150 nf=1 w=1.120

  X2 VPWR A Y VPB sky130_fd_pr__pfet_01v8 l=0.150 nf=1 w=1.120

  X3 VGND A Y VNB sky130_fd_pr__nfet_01v8_lvt l=0.150 nf=1 w=0.740

  X4 Y A VGND VNB sky130_fd_pr__nfet_01v8_lvt l=0.150 nf=1 w=0.740

  X5 Y A VPWR VPB sky130_fd_pr__pfet_01v8 l=0.150 nf=1 w=1.120

  X6 Y A VPWR VPB sky130_fd_pr__pfet_01v8 l=0.150 nf=1 w=1.120

  X7 Y A VGND VNB sky130_fd_pr__nfet_01v8_lvt l=0.150 nf=1 w=0.740


.ENDS sky130_fd_sc_hs__inv_4

.SUBCKT sky130_fd_sc_hs__inv_4_wrapper A VGND VNB VPB VPWR Y

  X0 A VGND VNB VPB VPWR Y sky130_fd_sc_hs__inv_4

.ENDS sky130_fd_sc_hs__inv_4_wrapper

.SUBCKT inv_chain_2 din dout vdd vss

  Xinv0 din vss vss vdd vdd x sky130_fd_sc_hs__inv_2_wrapper
  Xinv1 x vss vss vdd vdd dout sky130_fd_sc_hs__inv_4_wrapper

.ENDS inv_chain_2

.SUBCKT multi_finger_inv_2 vdd vss a y

  XMP0 y a vdd vdd mos_w700_l150_m1_nf1_id1
  XMP1 y a vdd vdd mos_w700_l150_m1_nf1_id1
  XMP2 y a vdd vdd mos_w700_l150_m1_nf1_id1
  XMP3 y a vdd vdd mos_w700_l150_m1_nf1_id1
  XMP4 y a vdd vdd mos_w700_l150_m1_nf1_id1
  XMP5 y a vdd vdd mos_w700_l150_m1_nf1_id1
  XMP6 y a vdd vdd mos_w700_l150_m1_nf1_id1
  XMN0 y a vss vss mos_w700_l150_m1_nf1_id0
  XMN1 y a vss vss mos_w700_l150_m1_nf1_id0
  XMN2 y a vss vss mos_w700_l150_m1_nf1_id0

.ENDS multi_finger_inv_2

.SUBCKT multi_finger_inv_3 vdd vss a y

  XMP0 y a vdd vdd mos_w700_l150_m1_nf1_id1
  XMP1 y a vdd vdd mos_w700_l150_m1_nf1_id1
  XMP2 y a vdd vdd mos_w700_l150_m1_nf1_id1
  XMP3 y a vdd vdd mos_w700_l150_m1_nf1_id1
  XMP4 y a vdd vdd mos_w700_l150_m1_nf1_id1
  XMP5 y a vdd vdd mos_w700_l150_m1_nf1_id1
  XMP6 y a vdd vdd mos_w700_l150_m1_nf1_id1
  XMP7 y a vdd vdd mos_w700_l150_m1_nf1_id1
  XMP8 y a vdd vdd mos_w700_l150_m1_nf1_id1
  XMP9 y a vdd vdd mos_w700_l150_m1_nf1_id1
  XMP10 y a vdd vdd mos_w700_l150_m1_nf1_id1
  XMP11 y a vdd vdd mos_w700_l150_m1_nf1_id1
  XMP12 y a vdd vdd mos_w700_l150_m1_nf1_id1
  XMP13 y a vdd vdd mos_w700_l150_m1_nf1_id1
  XMP14 y a vdd vdd mos_w700_l150_m1_nf1_id1
  XMN0 y a vss vss mos_w700_l150_m1_nf1_id0
  XMN1 y a vss vss mos_w700_l150_m1_nf1_id0
  XMN2 y a vss vss mos_w700_l150_m1_nf1_id0
  XMN3 y a vss vss mos_w700_l150_m1_nf1_id0
  XMN4 y a vss vss mos_w700_l150_m1_nf1_id0
  XMN5 y a vss vss mos_w700_l150_m1_nf1_id0

.ENDS multi_finger_inv_3

.SUBCKT sky130_fd_sc_hs__and2_2 A B VGND VNB VPB VPWR X

  X0 a_31_74# B VPWR VPB sky130_fd_pr__pfet_01v8 l=0.150 nf=1 w=1.000

  X1 X a_31_74# VGND VNB sky130_fd_pr__nfet_01v8_lvt l=0.150 nf=1 w=0.740

  X2 X a_31_74# VPWR VPB sky130_fd_pr__pfet_01v8 l=0.150 nf=1 w=1.120

  X3 a_118_74# B VGND VNB sky130_fd_pr__nfet_01v8_lvt l=0.150 nf=1 w=0.740

  X4 a_31_74# A a_118_74# VNB sky130_fd_pr__nfet_01v8_lvt l=0.150 nf=1 w=0.740

  X5 VPWR A a_31_74# VPB sky130_fd_pr__pfet_01v8 l=0.150 nf=1 w=1.000

  X6 VPWR a_31_74# X VPB sky130_fd_pr__pfet_01v8 l=0.150 nf=1 w=1.120

  X7 VGND a_31_74# X VNB sky130_fd_pr__nfet_01v8_lvt l=0.150 nf=1 w=0.740


.ENDS sky130_fd_sc_hs__and2_2

.SUBCKT sky130_fd_sc_hs__and2_2_wrapper A B VGND VNB VPB VPWR X

  X0 A B VGND VNB VPB VPWR X sky130_fd_sc_hs__and2_2

.ENDS sky130_fd_sc_hs__and2_2_wrapper

.SUBCKT multi_finger_inv_10 vdd vss a y

  XMP0 y a vdd vdd mos_w700_l150_m1_nf1_id1
  XMP1 y a vdd vdd mos_w700_l150_m1_nf1_id1
  XMP2 y a vdd vdd mos_w700_l150_m1_nf1_id1
  XMP3 y a vdd vdd mos_w700_l150_m1_nf1_id1
  XMP4 y a vdd vdd mos_w700_l150_m1_nf1_id1
  XMP5 y a vdd vdd mos_w700_l150_m1_nf1_id1
  XMP6 y a vdd vdd mos_w700_l150_m1_nf1_id1
  XMP7 y a vdd vdd mos_w700_l150_m1_nf1_id1
  XMP8 y a vdd vdd mos_w700_l150_m1_nf1_id1
  XMP9 y a vdd vdd mos_w700_l150_m1_nf1_id1
  XMP10 y a vdd vdd mos_w700_l150_m1_nf1_id1
  XMP11 y a vdd vdd mos_w700_l150_m1_nf1_id1
  XMP12 y a vdd vdd mos_w700_l150_m1_nf1_id1
  XMP13 y a vdd vdd mos_w700_l150_m1_nf1_id1
  XMP14 y a vdd vdd mos_w700_l150_m1_nf1_id1
  XMP15 y a vdd vdd mos_w700_l150_m1_nf1_id1
  XMP16 y a vdd vdd mos_w700_l150_m1_nf1_id1
  XMN0 y a vss vss mos_w700_l150_m1_nf1_id0