* Substrate SPICE library
* This is a generated file. Be careful when editing manually: this file may be overwritten.


.SUBCKT sram_sp_cell_replica BL BR VSS VDD VPB VNB WL

  X0 VDD WL BR VNB sky130_fd_pr__special_nfet_pass l=0.150 nf=1 w=0.140

  X1 Q VDD VSS VNB sky130_fd_pr__special_nfet_latch l=0.150 nf=1 w=0.210

  X2 BL WL Q VNB sky130_fd_pr__special_nfet_pass l=0.150 nf=1 w=0.140

  X3 Q WL Q VPB sky130_fd_pr__special_pfet_pass l=0.025 nf=1 w=0.140

  X4 VDD WL VDD VPB sky130_fd_pr__special_pfet_pass l=0.025 nf=1 w=0.140

  X5 VDD Q VDD VPB sky130_fd_pr__special_pfet_pass l=0.150 nf=1 w=0.140

  X6 Q VDD VDD VPB sky130_fd_pr__special_pfet_pass l=0.150 nf=1 w=0.140

  X7 VSS Q VDD VNB sky130_fd_pr__special_nfet_latch l=0.150 nf=1 w=0.210


.ENDS sram_sp_cell_replica

.SUBCKT sram_sp_cell_replica_wrapper BL BR VSS VDD VPB VNB WL

  X0 BL BR VSS VDD VPB VNB WL sram_sp_cell_replica

.ENDS sram_sp_cell_replica_wrapper

.SUBCKT sram_sp_horiz_wlstrap_p2 VSS VNB

  X0 VSS VSS VSS VNB sky130_fd_pr__nfet_01v8 l=0.150 nf=1 w=0.420


.ENDS sram_sp_horiz_wlstrap_p2

.SUBCKT sky130_fd_sc_hs__inv_2 A VGND VNB VPB VPWR Y

  X0 Y A VPWR VPB sky130_fd_pr__pfet_01v8 l=0.150 nf=1 w=1.120

  X1 VPWR A Y VPB sky130_fd_pr__pfet_01v8 l=0.150 nf=1 w=1.120

  X2 VGND A Y VNB sky130_fd_pr__nfet_01v8_lvt l=0.150 nf=1 w=0.740

  X3 Y A VGND VNB sky130_fd_pr__nfet_01v8_lvt l=0.150 nf=1 w=0.740


.ENDS sky130_fd_sc_hs__inv_2

.SUBCKT mos_w1350_l150_m1_nf1_id0 d g s b

  X0 d g s b sky130_fd_pr__nfet_01v8 l=0.150 nf=1 w=1.350


.ENDS mos_w1350_l150_m1_nf1_id0

.SUBCKT mos_w1350_l150_m1_nf1_id1 d g s b

  X0 d g s b sky130_fd_pr__pfet_01v8 l=0.150 nf=1 w=1.350


.ENDS mos_w1350_l150_m1_nf1_id1

.SUBCKT tristate_inv din en en_b din_b vdd vss

  Xmn_en din_b en nint vss mos_w1350_l150_m1_nf1_id0
  Xmn_pd nint din vss vss mos_w1350_l150_m1_nf1_id0
  Xmp_en din_b en_b pint vdd mos_w1350_l150_m1_nf1_id1
  Xmp_pu pint din vdd vdd mos_w1350_l150_m1_nf1_id1

.ENDS tristate_inv

.SUBCKT write_driver en en_b data data_b bl br vdd vss

  Xbldriver data_b en en_b bl vdd vss tristate_inv
  Xbrdriver data en en_b br vdd vss tristate_inv

.ENDS write_driver

.SUBCKT mos_w2000_l150_m1_nf1_id0 d g s b

  X0 d g s b sky130_fd_pr__nfet_01v8 l=0.150 nf=1 w=2.000


.ENDS mos_w2000_l150_m1_nf1_id0

.SUBCKT mos_w2500_l150_m1_nf1_id1 d g s b

  X0 d g s b sky130_fd_pr__pfet_01v8 l=0.150 nf=1 w=2.500


.ENDS mos_w2500_l150_m1_nf1_id1

.SUBCKT nand2_1 vdd vss a b y

  Xn1 x a vss vss mos_w2000_l150_m1_nf1_id0
  Xn2 y b x vss mos_w2000_l150_m1_nf1_id0
  Xp1 y a vdd vdd mos_w2500_l150_m1_nf1_id1
  Xp2 y b vdd vdd mos_w2500_l150_m1_nf1_id1

.ENDS nand2_1

.SUBCKT mos_w700_l150_m1_nf1_id1 d g s b

  X0 d g s b sky130_fd_pr__pfet_01v8 l=0.150 nf=1 w=0.700


.ENDS mos_w700_l150_m1_nf1_id1

.SUBCKT mos_w700_l150_m1_nf1_id0 d g s b

  X0 d g s b sky130_fd_pr__nfet_01v8 l=0.150 nf=1 w=0.700


.ENDS mos_w700_l150_m1_nf1_id0

.SUBCKT multi_finger_inv_12 vdd vss a y

  XMP0 y a vdd vdd mos_w700_l150_m1_nf1_id1
  XMP1 y a vdd vdd mos_w700_l150_m1_nf1_id1
  XMP2 y a vdd vdd mos_w700_l150_m1_nf1_id1
  XMP3 y a vdd vdd mos_w700_l150_m1_nf1_id1
  XMP4 y a vdd vdd mos_w700_l150_m1_nf1_id1
  XMP5 y a vdd vdd mos_w700_l150_m1_nf1_id1
  XMP6 y a vdd vdd mos_w700_l150_m1_nf1_id1
  XMP7 y a vdd vdd mos_w700_l150_m1_nf1_id1
  XMP8 y a vdd vdd mos_w700_l150_m1_nf1_id1
  XMN0 y a vss vss mos_w700_l150_m1_nf1_id0
  XMN1 y a vss vss mos_w700_l150_m1_nf1_id0
  XMN2 y a vss vss mos_w700_l150_m1_nf1_id0
  XMN3 y a vss vss mos_w700_l150_m1_nf1_id0

.ENDS multi_finger_inv_12

.SUBCKT multi_finger_inv_13 vdd vss a y

  XMP0 y a vdd vdd mos_w700_l150_m1_nf1_id1
  XMP1 y a vdd vdd mos_w700_l150_m1_nf1_id1
  XMP2 y a vdd vdd mos_w700_l150_m1_nf1_id1
  XMP3 y a vdd vdd mos_w700_l150_m1_nf1_id1
  XMP4 y a vdd vdd mos_w700_l150_m1_nf1_id1
  XMP5 y a vdd vdd mos_w700_l150_m1_nf1_id1
  XMP6 y a vdd vdd mos_w700_l150_m1_nf1_id1
  XMP7 y a vdd vdd mos_w700_l150_m1_nf1_id1
  XMN0 y a vss vss mos_w700_l150_m1_nf1_id0
  XMN1 y a vss vss mos_w700_l150_m1_nf1_id0
  XMN2 y a vss vss mos_w700_l150_m1_nf1_id0

.ENDS multi_finger_inv_13

.SUBCKT multi_finger_inv_14 vdd vss a y

  XMP0 y a vdd vdd mos_w700_l150_m1_nf1_id1
  XMP1 y a vdd vdd mos_w700_l150_m1_nf1_id1
  XMP2 y a vdd vdd mos_w700_l150_m1_nf1_id1
  XMP3 y a vdd vdd mos_w700_l150_m1_nf1_id1
  XMP4 y a vdd vdd mos_w700_l150_m1_nf1_id1
  XMP5 y a vdd vdd mos_w700_l150_m1_nf1_id1
  XMP6 y a vdd vdd mos_w700_l150_m1_nf1_id1
  XMP7 y a vdd vdd mos_w700_l150_m1_nf1_id1
  XMP8 y a vdd vdd mos_w700_l150_m1_nf1_id1
  XMP9 y a vdd vdd mos_w700_l150_m1_nf1_id1
  XMP10 y a vdd vdd mos_w700_l150_m1_nf1_id1
  XMP11 y a vdd vdd mos_w700_l150_m1_nf1_id1
  XMP12 y a vdd vdd mos_w700_l150_m1_nf1_id1
  XMP13 y a vdd vdd mos_w700_l150_m1_nf1_id1
  XMP14 y a vdd vdd mos_w700_l150_m1_nf1_id1
  XMP15 y a vdd vdd mos_w700_l150_m1_nf1_id1
  XMP16 y a vdd vdd mos_w700_l150_m1_nf1_id1
  XMP17 y a vdd vdd mos_w700_l150_m1_nf1_id1
  XMP18 y a vdd vdd mos_w700_l150_m1_nf1_id1
  XMP19 y a vdd vdd mos_w700_l150_m1_nf1_id1
  XMP20 y a vdd vdd mos_w700_l150_m1_nf1_id1
  XMN0 y a vss vss mos_w700_l150_m1_nf1_id0
  XMN1 y a vss vss mos_w700_l150_m1_nf1_id0
  XMN2 y a vss vss mos_w700_l150_m1_nf1_id0
  XMN3 y a vss vss mos_w700_l150_m1_nf1_id0
  XMN4 y a vss vss mos_w700_l150_m1_nf1_id0
  XMN5 y a vss vss mos_w700_l150_m1_nf1_id0
  XMN6 y a vss vss mos_w700_l150_m1_nf1_id0
  XMN7 y a vss vss mos_w700_l150_m1_nf1_id0

.ENDS multi_finger_inv_14

.SUBCKT decoder_stage_6 vdd vss y[0] y[1] y[2] y[3] y_b[0] y_b[1] y_b[2] y_b[3] predecode_0_0 predecode_0_1 predecode_1_0 predecode_1_1

  Xgate_0_0_0 vdd vss predecode_0_0 predecode_1_0 x_0[0] nand2_1
  Xgate_0_1_0 vdd vss predecode_0_1 predecode_1_0 x_0[1] nand2_1
  Xgate_0_2_0 vdd vss predecode_0_0 predecode_1_1 x_0[2] nand2_1
  Xgate_0_3_0 vdd vss predecode_0_1 predecode_1_1 x_0[3] nand2_1
  Xgate_1_0_0 vdd vss x_0[0] x_1[0] multi_finger_inv_12
  Xgate_1_1_0 vdd vss x_0[1] x_1[1] multi_finger_inv_12
  Xgate_1_2_0 vdd vss x_0[2] x_1[2] multi_finger_inv_12
  Xgate_1_3_0 vdd vss x_0[3] x_1[3] multi_finger_inv_12
  Xgate_2_0_0 vdd vss x_1[0] y_b[0] multi_finger_inv_13
  Xgate_2_0_1 vdd vss x_1[0] y_b[0] multi_finger_inv_13
  Xgate_2_0_2 vdd vss x_1[0] y_b[0] multi_finger_inv_13
  Xgate_2_1_0 vdd vss x_1[1] y_b[1] multi_finger_inv_13
  Xgate_2_1_1 vdd vss x_1[1] y_b[1] multi_finger_inv_13
  Xgate_2_1_2 vdd vss x_1[1] y_b[1] multi_finger_inv_13
  Xgate_2_2_0 vdd vss x_1[2] y_b[2] multi_finger_inv_13
  Xgate_2_2_1 vdd vss x_1[2] y_b[2] multi_finger_inv_13
  Xgate_2_2_2 vdd vss x_1[2] y_b[2] multi_finger_inv_13
  Xgate_2_3_0 vdd vss x_1[3] y_b[3] multi_finger_inv_13
  Xgate_2_3_1 vdd vss x_1[3] y_b[3] multi_finger_inv_13
  Xgate_2_3_2 vdd vss x_1[3] y_b[3] multi_finger_inv_13
  Xgate_3_0_0 vdd vss y_b[0] y[0] multi_finger_inv_14
  Xgate_3_0_1 vdd vss y_b[0] y[0] multi_finger_inv_14
  Xgate_3_0_2 vdd vss y_b[0] y[0] multi_finger_inv_14
  Xgate_3_1_0 vdd vss y_b[1] y[1] multi_finger_inv_14
  Xgate_3_1_1 vdd vss y_b[1] y[1] multi_finger_inv_14
  Xgate_3_1_2 vdd vss y_b[1] y[1] multi_finger_inv_14
  Xgate_3_2_0 vdd vss y_b[2] y[2] multi_finger_inv_14
  Xgate_3_2_1 vdd vss y_b[2] y[2] multi_finger_inv_14
  Xgate_3_2_2 vdd vss y_b[2] y[2] multi_finger_inv_14
  Xgate_3_3_0 vdd vss y_b[3] y[3] multi_finger_inv_14
  Xgate_3_3_1 vdd vss y_b[3] y[3] multi_finger_inv_14
  Xgate_3_3_2 vdd vss y_b[3] y[3] multi_finger_inv_14

.ENDS decoder_stage_6

.SUBCKT sky130_fd_sc_hs__and2_2 A B VGND VNB VPB VPWR X

  X0 a_31_74# B VPWR VPB sky130_fd_pr__pfet_01v8 l=0.150 nf=1 w=1.000

  X1 X a_31_74# VGND VNB sky130_fd_pr__nfet_01v8_lvt l=0.150 nf=1 w=0.740

  X2 X a_31_74# VPWR VPB sky130_fd_pr__pfet_01v8 l=0.150 nf=1 w=1.120

  X3 a_118_74# B VGND VNB sky130_fd_pr__nfet_01v8_lvt l=0.150 nf=1 w=0.740

  X4 a_31_74# A a_118_74# VNB sky130_fd_pr__nfet_01v8_lvt l=0.150 nf=1 w=0.740

  X5 VPWR A a_31_74# VPB sky130_fd_pr__pfet_01v8 l=0.150 nf=1 w=1.000

  X6 VPWR a_31_74# X VPB sky130_fd_pr__pfet_01v8 l=0.150 nf=1 w=1.120

  X7 VGND a_31_74# X VNB sky130_fd_pr__nfet_01v8_lvt l=0.150 nf=1 w=0.740


.ENDS sky130_fd_sc_hs__and2_2

.SUBCKT sky130_fd_sc_hs__and2_2_wrapper A B VGND VNB VPB VPWR X

  X0 A B VGND VNB VPB VPWR X sky130_fd_sc_hs__and2_2

.ENDS sky130_fd_sc_hs__and2_2_wrapper

.SUBCKT sky130_fd_sc_hs__inv_2_wrapper A VGND VNB VPB VPWR Y

  X0 A VGND VNB VPB VPWR Y sky130_fd_sc_hs__inv_2

.ENDS sky130_fd_sc_hs__inv_2_wrapper

.SUBCKT sky130_fd_sc_hs__inv_4 A VGND VNB VPB VPWR Y

  X0 VGND A Y VNB sky130_fd_pr__nfet_01v8_lvt l=0.150 nf=1 w=0.740

  X1 VPWR A Y VPB sky130_fd_pr__pfet_01v8 l=0.150 nf=1 w=1.120

  X2 VPWR A Y VPB sky130_fd_pr__pfet_01v8 l=0.150 nf=1 w=1.120

  X3 VGND A Y VNB sky130_fd_pr__nfet_01v8_lvt l=0.150 nf=1 w=0.740

  X4 Y A VGND VNB sky130_fd_pr__nfet_01v8_lvt l=0.150 nf=1 w=0.740

  X5 Y A VPWR VPB sky130_fd_pr__pfet_01v8 l=0.150 nf=1 w=1.120

  X6 Y A VPWR VPB sky130_fd_pr__pfet_01v8 l=0.150 nf=1 w=1.120

  X7 Y A VGND VNB sky130_fd_pr__nfet_01v8_lvt l=0.150 nf=1 w=0.740


.ENDS sky130_fd_sc_hs__inv_4

.SUBCKT sky130_fd_sc_hs__inv_4_wrapper A VGND VNB VPB VPWR Y

  X0 A VGND VNB VPB VPWR Y sky130_fd_sc_hs__inv_4

.ENDS sky130_fd_sc_hs__inv_4_wrapper

.SUBCKT inv_chain_16 din dout vdd vss

  Xinv0 din vss vss vdd vdd x[0] sky130_fd_sc_hs__inv_2_wrapper
  Xinv1 x[0] vss vss vdd vdd x[1] sky130_fd_sc_hs__inv_2_wrapper
  Xinv2 x[1] vss vss vdd vdd x[2] sky130_fd_sc_hs__inv_2_wrapper
  Xinv3 x[2] vss vss vdd vdd x[3] sky130_fd_sc_hs__inv_2_wrapper
  Xinv4 x[3] vss vss vdd vdd x[4] sky130_fd_sc_hs__inv_2_wrapper
  Xinv5 x[4] vss vss vdd vdd x[5] sky130_fd_sc_hs__inv_2_wrapper
  Xinv6 x[5] vss vss vdd vdd x[6] sky130_fd_sc_hs__inv_2_wrapper
  Xinv7 x[6] vss vss vdd vdd x[7] sky130_fd_sc_hs__inv_2_wrapper
  Xinv8 x[7] vss vss vdd vdd x[8] sky130_fd_sc_hs__inv_2_wrapper
  Xinv9 x[8] vss vss vdd vdd x[9] sky130_fd_sc_hs__inv_2_wrapper
  Xinv10 x[9] vss vss vdd vdd x[10] sky130_fd_sc_hs__inv_2_wrapper
  Xinv11 x[10] vss vss vdd vdd x[11] sky130_fd_sc_hs__inv_2_wrapper
  Xinv12 x[11] vss vss vdd vdd x[12] sky130_fd_sc_hs__inv_2_wrapper
  Xinv13 x[12] vss vss vdd vdd x[13] sky130_fd_sc_hs__inv_2_wrapper
  Xinv14 x[13] vss vss vdd vdd x[14] sky130_fd_sc_hs__inv_2_wrapper
  Xinv15 x[14] vss vss vdd vdd dout sky130_fd_sc_hs__inv_4_wrapper

.ENDS inv_chain_16

.SUBCKT multi_finger_inv_6 vdd vss a y

  XMP0 y a vdd vdd mos_w700_l150_m1_nf1_id1
  XMP1 y a vdd vdd mos_w700_l150_m1_nf1_id1
  XMP2 y a vdd vdd mos_w700_l150_m1_nf1_id1
  XMP3 y a vdd vdd mos_w700_l150_m1_nf1_id1
  XMP4 y a vdd vdd mos_w700_l150_m1_nf1_id1
  XMP5 y a vdd vdd mos_w700_l150_m1_nf1_id1
  XMP6 y a vdd vdd mos_w700_l150_m1_nf1_id1
  XMN0 y a vss vss mos_w700_l150_m1_nf1_id0
  XMN1 y a vss vss mos_w700_l150_m1_nf1_id0
  XMN2 y a vss vss mos_w700_l150_m1_nf1_id0

.ENDS multi_finger_inv_6

.SUBCKT mos_w1800_l150_m1_nf1_id1 d g s b

  X0 d g s b sky130_fd_pr__pfet_01v8 l=0.150 nf=1 w=1.800


.ENDS mos_w1800_l150_m1_nf1_id1

.SUBCKT sky130_fd_sc_hs__inv_16 A VGND VNB VPB VPWR Y

  X0 VPWR A Y VPB sky130_fd_pr__pfet_01v8 l=0.150 nf=1 w=1.120

  X1 Y A VGND VNB sky130_fd_pr__nfet_01v8_lvt l=0.150 nf=1 w=0.740

  X2 Y A VPWR VPB sky130_fd_pr__pfet_01v8 l=0.150 nf=1 w=1.120

  X3 Y A VPWR VPB sky130_fd_pr__pfet_01v8 l=0.150 nf=1 w=1.120

  X4 VPWR A Y VPB sky130_fd_pr__pfet_01v8 l=0.150 nf=1 w=1.120

  X5 VGND A Y VNB sky130_fd_pr__nfet_01v8_lvt l=0.150 nf=1 w=0.740

  X6 Y A VPWR VPB sky130_fd_pr__pfet_01v8 l=0.150 nf=1 w=1.120

  X7 VGND A Y VNB sky130_fd_pr__nfet_01v8_lvt l=0.150 nf=1 w=0.740

  X8 VPWR A Y VPB sky130_fd_pr__pfet_01v8 l=0.150 nf=1 w=1.120

  X9 VGND A Y VNB sky130_fd_pr__nfet_01v8_lvt l=0.150 nf=1 w=0.740

  X10 Y A VPWR VPB sky130_fd_pr__pfet_01v8 l=0.150 nf=1 w=1.120

  X11 VGND A Y VNB sky130_fd_pr__nfet_01v8_lvt l=0.150 nf=1 w=0.740

  X12 VPWR A Y VPB sky130_fd_pr__pfet_01v8 l=0.150 nf=1 w=1.120

  X13 VGND A Y VNB sky130_fd_pr__nfet_01v8_lvt l=0.150 nf=1 w=0.740

  X14 Y A VGND VNB sky130_fd_pr__nfet_01v8_lvt l=0.150 nf=1 w=0.740

  X15 Y A VGND VNB sky130_fd_pr__nfet_01v8_lvt l=0.150 nf=1 w=0.740

  X16 VGND A Y VNB sky130_fd_pr__nfet_01v8_lvt l=0.150 nf=1 w=0.740

  X17 VPWR A Y VPB sky130_fd_pr__pfet_01v8 l=0.150 nf=1 w=1.120

  X18 VGND A Y VNB sky130_fd_pr__nfet_01v8_lvt l=0.150 nf=1 w=0.740

  X19 Y A VGND VNB sky130_fd_pr__nfet_01v8_lvt l=0.150 nf=1 w=0.740

  X20 Y A VGND VNB sky130_fd_pr__nfet_01v8_lvt l=0.150 nf=1 w=0.740

  X21 VPWR A Y VPB sky130_fd_pr__pfet_01v8 l=0.150 nf=1 w=1.120

  X22 Y A VGND VNB sky130_fd_pr__nfet_01v8_lvt l=0.150 nf=1 w=0.740

  X23 Y A VPWR VPB sky130_fd_pr__pfet_01v8 l=0.150 nf=1 w=1.120

  X24 Y A VPWR VPB sky130_fd_pr__pfet_01v8 l=0.150 nf=1 w=1.120

  X25 VGND A Y VNB sky130_fd_pr__nfet_01v8_lvt l=0.150 nf=1 w=0.740

  X26 Y A VGND VNB sky130_fd_pr__nfet_01v8_lvt l=0.150 nf=1 w=0.740

  X27 Y A VGND VNB sky130_fd_pr__nfet_01v8_lvt l=0.150 nf=1 w=0.740

  X28 VPWR A Y VPB sky130_fd_pr__pfet_01v8 l=0.150 nf=1 w=1.120

  X29 VPWR A Y VPB sky130_fd_pr__pfet_01v8 l=0.150 nf=1 w=1.120

  X30 Y A VPWR VPB sky130_fd_pr__pfet_01v8 l=0.150 nf=1 w=1.120

  X31 Y A VPWR VPB sky130_fd_pr__pfet_01v8 l=0.150 nf=1 w=1.120


.ENDS sky130_fd_sc_hs__inv_16

.SUBCKT mos_w3000_l150_m1_nf1_id0 d g s b

  X0 d g s b sky130_fd_pr__nfet_01v8 l=0.150 nf=1 w=3.000


.ENDS mos_w3000_l150_m1_nf1_id0

.SUBCKT sram_sp_colend BR VDD VSS BL VNB VPB

  X0 BR VNB BR VNB sky130_fd_pr__special_nfet_pass l=0.140 nf=1 w=0.140


.ENDS sram_sp_colend

.SUBCKT sram_sp_colend_wrapper BR VDD VSS BL VNB VPB

  X0 BR VDD VSS BL VNB VPB sram_sp_colend

.ENDS sram_sp_colend_wrapper

.SUBCKT sram_sp_rowtapend_replica VSS VNB

  X0 VSS VSS VSS VNB sky130_fd_pr__nfet_01v8 l=0.150 nf=1 w=0.420


.ENDS sram_sp_rowtapend_replica

.SUBCKT sram_sp_rowtapend_replica_wrapper VSS VNB

  X0 VSS VNB sram_sp_rowtapend_replica

.ENDS sram_sp_rowtapend_replica_wrapper

.SUBCKT sram_sp_hstrap BR VDD VSS BL VNB VPB

  X0 BL VNB BL VNB sky130_fd_pr__special_nfet_pass l=0.140 nf=1 w=0.140

  X1 BL VNB BL VNB sky130_fd_pr__special_nfet_pass l=0.140 nf=1 w=0.140


.ENDS sram_sp_hstrap

.SUBCKT sram_sp_hstrap_wrapper BR VDD VSS BL VNB VPB

  X0 BR VDD VSS BL VNB VPB sram_sp_hstrap

.ENDS sram_sp_hstrap_wrapper

.SUBCKT replica_cell_array vdd vss rbl rbr rwl

  Xcell_0_0 rbl rbr vss vdd vdd vss rwl sram_sp_cell_replica_wrapper
  Xcell_0_1 rbl rbr vss vdd vdd vss rwl sram_sp_cell_replica_wrapper
  Xcell_1_0 rbl rbr vss vdd vdd vss vss sram_sp_cell_replica_wrapper
  Xcell_1_1 rbl rbr vss vdd vdd vss vss sram_sp_cell_replica_wrapper
  Xcell_2_0 rbl rbr vss vdd vdd vss vss sram_sp_cell_replica_wrapper
  Xcell_2_1 rbl rbr vss vdd vdd vss vss sram_sp_cell_replica_wrapper
  Xcell_3_0 rbl rbr vss vdd vdd vss vss sram_sp_cell_replica_wrapper
  Xcell_3_1 rbl rbr vss vdd vdd vss vss sram_sp_cell_replica_wrapper
  Xcell_4_0 rbl rbr vss vdd vdd vss vss sram_sp_cell_replica_wrapper
  Xcell_4_1 rbl rbr vss vdd vdd vss vss sram_sp_cell_replica_wrapper
  Xcell_5_0 rbl rbr vss vdd vdd vss vss sram_sp_cell_replica_wrapper
  Xcell_5_1 rbl rbr vss vdd vdd vss vss sram_sp_cell_replica_wrapper
  Xcell_6_0 rbl rbr vss vdd vdd vss vss sram_sp_cell_replica_wrapper
  Xcell_6_1 rbl rbr vss vdd vdd vss vss sram_sp_cell_replica_wrapper
  Xcell_7_0 rbl rbr vss vdd vdd vss vss sram_sp_cell_replica_wrapper
  Xcell_7_1 rbl rbr vss vdd vdd vss vss sram_sp_cell_replica_wrapper
  Xcell_8_0 rbl rbr vss vdd vdd vss vss sram_sp_cell_replica_wrapper
  Xcell_8_1 rbl rbr vss vdd vdd vss vss sram_sp_cell_replica_wrapper
  Xcell_9_0 rbl rbr vss vdd vdd vss vss sram_sp_cell_replica_wrapper
  Xcell_9_1 rbl rbr vss vdd vdd vss vss sram_sp_cell_replica_wrapper
  Xcolend_0_0 rbr vdd vss rbl vss vdd sram_sp_colend_wrapper
  Xcolend_1_0 rbr vdd vss rbl vss vdd sram_sp_colend_wrapper
  Xcolend_0_1 rbr vdd vss rbl vss vdd sram_sp_colend_wrapper
  Xcolend_1_1 rbr vdd vss rbl vss vdd sram_sp_colend_wrapper
  Xrowtapend_0_0 vss vss sram_sp_rowtapend_replica_wrapper
  Xrowtapend_0_1 vss vss sram_sp_rowtapend_replica_wrapper
  Xhstrap_0_0 rbr vdd vss rbl vss vdd sram_sp_hstrap_wrapper
  Xhstrap_0_1 rbr vdd vss rbl vss vdd sram_sp_hstrap_wrapper
  Xrowtapend_1_0 vss vss sram_sp_rowtapend_replica_wrapper
  Xrowtapend_1_1 vss vss sram_sp_rowtapend_replica_wrapper
  Xhstrap_1_0 rbr vdd vss rbl vss vdd sram_sp_hstrap_wrapper
  Xhstrap_1_1 rbr vdd vss rbl vss vdd sram_sp_hstrap_wrapper
  Xrowtapend_2_0 vss vss sram_sp_rowtapend_replica_wrapper
  Xrowtapend_2_1 vss vss sram_sp_rowtapend_replica_wrapper
  Xhstrap_2_0 rbr vdd vss rbl vss vdd sram_sp_hstrap_wrapper
  Xhstrap_2_1 rbr vdd vss rbl vss vdd sram_sp_hstrap_wrapper

.ENDS replica_cell_array

.SUBCKT mos_w800_l150_m1_nf1_id1 d g s b

  X0 d g s b sky130_fd_pr__pfet_01v8 l=0.150 nf=1 w=0.800


.ENDS mos_w800_l150_m1_nf1_id1

.SUBCKT mos_w500_l150_m1_nf1_id1 d g s b

  X0 d g s b sky130_fd_pr__pfet_01v8 l=0.150 nf=1 w=0.500


.ENDS mos_w500_l150_m1_nf1_id1

.SUBCKT precharge vdd bl br en_b

  Xbl_pull_up bl en_b vdd vdd mos_w800_l150_m1_nf1_id1
  Xbr_pull_up br en_b vdd vdd mos_w800_l150_m1_nf1_id1
  Xequalizer bl en_b br vdd mos_w500_l150_m1_nf1_id1

.ENDS precharge

.SUBCKT mos_w2600_l150_m1_nf1_id1 d g s b

  X0 d g s b sky130_fd_pr__pfet_01v8 l=0.150 nf=1 w=2.600


.ENDS mos_w2600_l150_m1_nf1_id1

.SUBCKT nand3 vdd vss a b c y

  Xn1 x1 a vss vss mos_w3000_l150_m1_nf1_id0
  Xn2 x2 b x1 vss mos_w3000_l150_m1_nf1_id0
  Xn3 y c x2 vss mos_w3000_l150_m1_nf1_id0
  Xp1 y a vdd vdd mos_w2500_l150_m1_nf1_id1
  Xp2 y b vdd vdd mos_w2500_l150_m1_nf1_id1
  Xp3 y c vdd vdd mos_w2500_l150_m1_nf1_id1

.ENDS nand3

.SUBCKT mos_w2700_l150_m1_nf1_id1 d g s b

  X0 d g s b sky130_fd_pr__pfet_01v8 l=0.150 nf=1 w=2.700


.ENDS mos_w2700_l150_m1_nf1_id1

.SUBCKT mos_w1080_l150_m1_nf1_id0 d g s b

  X0 d g s b sky130_fd_pr__nfet_01v8 l=0.150 nf=1 w=1.080


.ENDS mos_w1080_l150_m1_nf1_id0

.SUBCKT folded_inv_4 vdd vss a y

  XMP0 y a vdd vdd mos_w2700_l150_m1_nf1_id1
  XMN0 y a vss vss mos_w1080_l150_m1_nf1_id0
  XMP1 y a vdd vdd mos_w2700_l150_m1_nf1_id1
  XMN1 y a vss vss mos_w1080_l150_m1_nf1_id0

.ENDS folded_inv_4

.SUBCKT decoder_stage_8 vdd vss y[0] y[1] y[2] y[3] y[4] y[5] y[6] y[7] y_b[0] y_b[1] y_b[2] y_b[3] y_b[4] y_b[5] y_b[6] y_b[7] predecode_0_0 predecode_0_1 predecode_1_0 predecode_1_1 predecode_2_0 predecode_2_1

  Xgate_0_0_0 vdd vss predecode_0_0 predecode_1_0 predecode_2_0 y_b[0] nand3
  Xgate_0_1_0 vdd vss predecode_0_1 predecode_1_0 predecode_2_0 y_b[1] nand3
  Xgate_0_2_0 vdd vss predecode_0_0 predecode_1_1 predecode_2_0 y_b[2] nand3
  Xgate_0_3_0 vdd vss predecode_0_1 predecode_1_1 predecode_2_0 y_b[3] nand3
  Xgate_0_4_0 vdd vss predecode_0_0 predecode_1_0 predecode_2_1 y_b[4] nand3
  Xgate_0_5_0 vdd vss predecode_0_1 predecode_1_0 predecode_2_1 y_b[5] nand3
  Xgate_0_6_0 vdd vss predecode_0_0 predecode_1_1 predecode_2_1 y_b[6] nand3
  Xgate_0_7_0 vdd vss predecode_0_1 predecode_1_1 predecode_2_1 y_b[7] nand3
  Xgate_1_0_0 vdd vss y_b[0] y[0] folded_inv_4
  Xgate_1_1_0 vdd vss y_b[1] y[1] folded_inv_4
  Xgate_1_2_0 vdd vss y_b[2] y[2] folded_inv_4
  Xgate_1_3_0 vdd vss y_b[3] y[3] folded_inv_4
  Xgate_1_4_0 vdd vss y_b[4] y[4] folded_inv_4
  Xgate_1_5_0 vdd vss y_b[5] y[5] folded_inv_4
  Xgate_1_6_0 vdd vss y_b[6] y[6] folded_inv_4
  Xgate_1_7_0 vdd vss y_b[7] y[7] folded_inv_4

.ENDS decoder_stage_8

.SUBCKT decoder_2 vdd vss y[0] y[1] y[2] y[3] y[4] y[5] y[6] y[7] y_b[0] y_b[1] y_b[2] y_b[3] y_b[4] y_b[5] y_b[6] y_b[7] predecode_0_0 predecode_0_1 predecode_1_0 predecode_1_1 predecode_2_0 predecode_2_1

  X0 vdd vss y[0] y[1] y[2] y[3] y[4] y[5] y[6] y[7] y_b[0] y_b[1] y_b[2] y_b[3] y_b[4] y_b[5] y_b[6] y_b[7] predecode_0_0 predecode_0_1 predecode_1_0 predecode_1_1 predecode_2_0 predecode_2_1 decoder_stage_8

.ENDS decoder_2

.SUBCKT mos_w3800_l150_m1_nf1_id1 d g s b

  X0 d g s b sky130_fd_pr__pfet_01v8 l=0.150 nf=1 w=3.800


.ENDS mos_w3800_l150_m1_nf1_id1

.SUBCKT mos_w1530_l150_m1_nf1_id0 d g s b

  X0 d g s b sky130_fd_pr__nfet_01v8 l=0.150 nf=1 w=1.530


.ENDS mos_w1530_l150_m1_nf1_id0

.SUBCKT folded_inv_5 vdd vss a y

  XMP0 y a vdd vdd mos_w3800_l150_m1_nf1_id1
  XMN0 y a vss vss mos_w1530_l150_m1_nf1_id0
  XMP1 y a vdd vdd mos_w3800_l150_m1_nf1_id1
  XMN1 y a vss vss mos_w1530_l150_m1_nf1_id0

.ENDS folded_inv_5

.SUBCKT decoder_stage_9 vdd vss y[0] y[1] y[2] y[3] y_b[0] y_b[1] y_b[2] y_b[3] predecode_0_0 predecode_0_1 predecode_1_0 predecode_1_1

  Xgate_0_0_0 vdd vss predecode_0_0 predecode_1_0 y_b[0] nand2_1
  Xgate_0_1_0 vdd vss predecode_0_1 predecode_1_0 y_b[1] nand2_1
  Xgate_0_2_0 vdd vss predecode_0_0 predecode_1_1 y_b[2] nand2_1
  Xgate_0_3_0 vdd vss predecode_0_1 predecode_1_1 y_b[3] nand2_1
  Xgate_1_0_0 vdd vss y_b[0] y[0] folded_inv_5
  Xgate_1_1_0 vdd vss y_b[1] y[1] folded_inv_5
  Xgate_1_2_0 vdd vss y_b[2] y[2] folded_inv_5
  Xgate_1_3_0 vdd vss y_b[3] y[3] folded_inv_5

.ENDS decoder_stage_9

.SUBCKT decoder_3 vdd vss y[0] y[1] y[2] y[3] y_b[0] y_b[1] y_b[2] y_b[3] predecode_0_0 predecode_0_1 predecode_1_0 predecode_1_1

  X0 vdd vss y[0] y[1] y[2] y[3] y_b[0] y_b[1] y_b[2] y_b[3] predecode_0_0 predecode_0_1 predecode_1_0 predecode_1_1 decoder_stage_9

.ENDS decoder_3

.SUBCKT nand2 vdd vss a b y

  Xn1 x a vss vss mos_w2000_l150_m1_nf1_id0
  Xn2 y b x vss mos_w2000_l150_m1_nf1_id0
  Xp1 y a vdd vdd mos_w2500_l150_m1_nf1_id1
  Xp2 y b vdd vdd mos_w2500_l150_m1_nf1_id1

.ENDS nand2

.SUBCKT mos_w2350_l150_m1_nf1_id1 d g s b

  X0 d g s b sky130_fd_pr__pfet_01v8 l=0.150 nf=1 w=2.350


.ENDS mos_w2350_l150_m1_nf1_id1

.SUBCKT mos_w950_l150_m1_nf1_id0 d g s b

  X0 d g s b sky130_fd_pr__nfet_01v8 l=0.150 nf=1 w=0.950


.ENDS mos_w950_l150_m1_nf1_id0

.SUBCKT folded_inv_6 vdd vss a y

  XMP0 y a vdd vdd mos_w2350_l150_m1_nf1_id1
  XMN0 y a vss vss mos_w950_l150_m1_nf1_id0
  XMP1 y a vdd vdd mos_w2350_l150_m1_nf1_id1
  XMN1 y a vss vss mos_w950_l150_m1_nf1_id0

.ENDS folded_inv_6

.SUBCKT and2_1 vdd a b y yb vss

  X0 vdd vss a b yb nand2
  X0_1 vdd vss yb y folded_inv_6

.ENDS and2_1

.SUBCKT multi_finger_inv_8 vdd vss a y

  XMP0 y a vdd vdd mos_w700_l150_m1_nf1_id1
  XMP1 y a vdd vdd mos_w700_l150_m1_nf1_id1
  XMP2 y a vdd vdd mos_w700_l150_m1_nf1_id1
  XMP3 y a vdd vdd mos_w700_l150_m1_nf1_id1
  XMP4 y a vdd vdd mos_w700_l150_m1_nf1_id1
  XMP5 y a vdd vdd mos_w700_l150_m1_nf1_id1
  XMP6 y a vdd vdd mos_w700_l150_m1_nf1_id1
  XMP7 y a vdd vdd mos_w700_l150_m1_nf1_id1
  XMP8 y a vdd vdd mos_w700_l150_m1_nf1_id1
  XMP9 y a vdd vdd mos_w700_l150_m1_nf1_id1
  XMP10 y a vdd vdd mos_w700_l150_m1_nf1_id1
  XMP11 y a vdd vdd mos_w700_l150_m1_nf1_id1
  XMP12 y a vdd vdd mos_w700_l150_m1_nf1_id1
  XMN0 y a vss vss mos_w700_l150_m1_nf1_id0
  XMN1 y a vss vss mos_w700_l150_m1_nf1_id0
  XMN2 y a vss vss mos_w700_l150_m1_nf1_id0
  XMN3 y a vss vss mos_w700_l150_m1_nf1_id0
  XMN4 y a vss vss mos_w700_l150_m1_nf1_id0

.ENDS multi_finger_inv_8

.SUBCKT multi_finger_inv_9 vdd vss a y

  XMP0 y a vdd vdd mos_w700_l150_m1_nf1_id1
  XMP1 y a vdd vdd mos_w700_l150_m1_nf1_id1
  XMP2 y a vdd vdd mos_w700_l150_m1_nf1_id1
  XMP3 y a vdd vdd mos_w700_l150_m1_nf1_id1
  XMP4 y a vdd vdd mos_w700_l150_m1_nf1_id1
  XMP5 y a vdd vdd mos_w700_l150_m1_nf1_id1
  XMP6 y a vdd vdd mos_w700_l150_m1_nf1_id1
  XMP7 y a vdd vdd mos_w700_l150_m1_nf1_id1
  XMP8 y a vdd vdd mos_w700_l150_m1_nf1_id1
  XMP9 y a vdd vdd mos_w700_l150_m1_nf1_id1
  XMP10 y a vdd vdd mos_w700_l150_m1_nf1_id1
  XMP11 y a vdd vdd mos_w700_l150_m1_nf1_id1
  XMP12 y a vdd vdd mos_w700_l150_m1_nf1_id1
  XMP13 y a vdd vdd mos_w700_l150_m1_nf1_id1
  XMP14 y a vdd vdd mos_w700_l150_m1_nf1_id1
  XMP15 y a vdd vdd mos_w700_l150_m1_nf1_id1
  XMP16 y a vdd vdd mos_w700_l150_m1_nf1_id1
  XMP17 y a vdd vdd mos_w700_l150_m1_nf1_id1
  XMP18 y a vdd vdd mos_w700_l150_m1_nf1_id1
  XMP19 y a vdd vdd mos_w700_l150_m1_nf1_id1
  XMP20 y a vdd vdd mos_w700_l150_m1_nf1_id1
  XMP21 y a vdd vdd mos_w700_l150_m1_nf1_id1
  XMP22 y a vdd vdd mos_w700_l150_m1_nf1_id1
  XMP23 y a vdd vdd mos_w700_l150_m1_nf1_id1
  XMP24 y a vdd vdd mos_w700_l150_m1_nf1_id1
  XMP25 y a vdd vdd mos_w700_l150_m1_nf1_id1
  XMN0 y a vss vss mos_w700_l150_m1_nf1_id0
  XMN1 y a vss vss mos_w700_l150_m1_nf1_id0
  XMN2 y a vss vss mos_w700_l150_m1_nf1_id0
  XMN3 y a vss vss mos_w700_l150_m1_nf1_id0
  XMN4 y a vss vss mos_w700_l150_m1_nf1_id0
  XMN5 y a vss vss mos_w700_l150_m1_nf1_id0
  XMN6 y a vss vss mos_w700_l150_m1_nf1_id0
  XMN7 y a vss vss mos_w700_l150_m1_nf1_id0
  XMN8 y a vss vss mos_w700_l150_m1_nf1_id0
  XMN9 y a vss vss mos_w700_l150_m1_nf1_id0

.ENDS multi_finger_inv_9

.SUBCKT multi_finger_inv_10 vdd vss a y

  XMP0 y a vdd vdd mos_w700_l150_m1_nf1_id1
  XMP1 y a vdd vdd mos_w700_l150_m1_nf1_id1
  XMP2 y a vdd vdd mos_w700_l150_m1_nf1_id1
  XMP3 y a vdd vdd mos_w700_l150_m1_nf1_id1
  XMP4 y a vdd vdd mos_w700_l150_m1_nf1_id1
  XMP5 y a vdd vdd mos_w700_l150_m1_nf1_id1
  XMP6 y a vdd vdd mos_w700_l150_m1_nf1_id1
  XMP7 y a vdd vdd mos_w700_l150_m1_nf1_id1
  XMP8 y a vdd vdd mos_w700_l150_m1_nf1_id1
  XMP9 y a vdd vdd mos_w700_l150_m1_nf1_id1
  XMP10 y a vdd vdd mos_w700_l150_m1_nf1_id1
  XMP11 y a vdd vdd mos_w700_l150_m1_nf1_id1
  XMP12 y a vdd vdd mos_w700_l150_m1_nf1_id1
  XMP13 y a vdd vdd mos_w700_l150_m1_nf1_id1
  XMP14 y a vdd vdd mos_w700_l150_m1_nf1_id1
  XMP15 y a vdd vdd mos_w700_l150_m1_nf1_id1
  XMP16 y a vdd vdd mos_w700_l150_m1_nf1_id1
  XMP17 y a vdd vdd mos_w700_l150_m1_nf1_id1
  XMP18 y a vdd vdd mos_w700_l150_m1_nf1_id1
  XMP19 y a vdd vdd mos_w700_l150_m1_nf1_id1
  XMP20 y a vdd vdd mos_w700_l150_m1_nf1_id1
  XMP21 y a vdd vdd mos_w700_l150_m1_nf1_id1
  XMP22 y a vdd vdd mos_w700_l150_m1_nf1_id1
  XMP23 y a vdd vdd mos_w700_l150_m1_nf1_id1
  XMP24 y a vdd vdd mos_w700_l150_m1_nf1_id1
  XMP25 y a vdd vdd mos_w700_l150_m1_nf1_id1
  XMP26 y a vdd vdd mos_w700_l150_m1_nf1_id1
  XMP27 y a vdd vdd mos_w700_l150_m1_nf1_id1
  XMP28 y a vdd vdd mos_w700_l150_m1_nf1_id1
  XMP29 y a vdd vdd mos_w700_l150_m1_nf1_id1
  XMP30 y a vdd vdd mos_w700_l150_m1_nf1_id1
  XMP31 y a vdd vdd mos_w700_l150_m1_nf1_id1
  XMP32 y a vdd vdd mos_w700_l150_m1_nf1_id1
  XMP33 y a vdd vdd mos_w700_l150_m1_nf1_id1
  XMP34 y a vdd vdd mos_w700_l150_m1_nf1_id1
  XMP35 y a vdd vdd mos_w700_l150_m1_nf1_id1
  XMP36 y a vdd vdd mos_w700_l150_m1_nf1_id1
  XMP37 y a vdd vdd mos_w700_l150_m1_nf1_id1
  XMP38 y a vdd vdd mos_w700_l150_m1_nf1_id1
  XMP39 y a vdd vdd mos_w700_l150_m1_nf1_id1
  XMP40 y a vdd vdd mos_w700_l150_m1_nf1_id1
  XMP41 y a vdd vdd mos_w700_l150_m1_nf1_id1
  XMP42 y a vdd vdd mos_w700_l150_m1_nf1_id1
  XMP43 y a vdd vdd mos_w700_l150_m1_nf1_id1
  XMP44 y a vdd vdd mos_w700_l150_m1_nf1_id1
  XMP45 y a vdd vdd mos_w700_l150_m1_nf1_id1
  XMP46 y a vdd vdd mos_w700_l150_m1_nf1_id1
  XMP47 y a vdd vdd mos_w700_l150_m1_nf1_id1
  XMP48 y a vdd vdd mos_w700_l150_m1_nf1_id1
  XMP49 y a vdd vdd mos_w700_l150_m1_nf1_id1
  XMP50 y a vdd vdd mos_w700_l150_m1_nf1_id1
  XMN0 y a vss vss mos_w700_l150_m1_nf1_id0
  XMN1 y a vss vss mos_w700_l150_m1_nf1_id0
  XMN2 y a vss vss mos_w700_l150_m1_nf1_id0
  XMN3 y a vss vss mos_w700_l150_m1_nf1_id0
  XMN4 y a vss vss mos_w700_l150_m1_nf1_id0
  XMN5 y a vss vss mos_w700_l150_m1_nf1_id0
  XMN6 y a vss vss mos_w700_l150_m1_nf1_id0
  XMN7 y a vss vss mos_w700_l150_m1_nf1_id0
  XMN8 y a vss vss mos_w700_l150_m1_nf1_id0
  XMN9 y a vss vss mos_w700_l150_m1_nf1_id0
  XMN10 y a vss vss mos_w700_l150_m1_nf1_id0
  XMN11 y a vss vss mos_w700_l150_m1_nf1_id0
  XMN12 y a vss vss mos_w700_l150_m1_nf1_id0
  XMN13 y a vss vss mos_w700_l150_m1_nf1_id0
  XMN14 y a vss vss mos_w700_l150_m1_nf1_id0
  XMN15 y a vss vss mos_w700_l150_m1_nf1_id0
  XMN16 y a vss vss mos_w700_l150_m1_nf1_id0
  XMN17 y a vss vss mos_w700_l150_m1_nf1_id0
  XMN18 y a vss vss mos_w700_l150_m1_nf1_id0
  XMN19 y a vss vss mos_w700_l150_m1_nf1_id0

.ENDS multi_finger_inv_10

.SUBCKT multi_finger_inv_11 vdd vss a y

  XMP0 y a vdd vdd mos_w700_l150_m1_nf1_id1
  XMP1 y a vdd vdd mos_w700_l150_m1_nf1_id1
  XMP2 y a vdd vdd mos_w700_l150_m1_nf1_id1
  XMP3 y a vdd vdd mos_w700_l150_m1_nf1_id1
  XMP4 y a vdd vdd mos_w700_l150_m1_nf1_id1
  XMP5 y a vdd vdd mos_w700_l150_m1_nf1_id1
  XMP6 y a vdd vdd mos_w700_l150_m1_nf1_id1
  XMP7 y a vdd vdd mos_w700_l150_m1_nf1_id1
  XMP8 y a vdd vdd mos_w700_l150_m1_nf1_id1
  XMP9 y a vdd vdd mos_w700_l150_m1_nf1_id1
  XMP10 y a vdd vdd mos_w700_l150_m1_nf1_id1
  XMP11 y a vdd vdd mos_w700_l150_m1_nf1_id1
  XMP12 y a vdd vdd mos_w700_l150_m1_nf1_id1
  XMP13 y a vdd vdd mos_w700_l150_m1_nf1_id1
  XMP14 y a vdd vdd mos_w700_l150_m1_nf1_id1
  XMP15 y a vdd vdd mos_w700_l150_m1_nf1_id1
  XMP16 y a vdd vdd mos_w700_l150_m1_nf1_id1
  XMP17 y a vdd vdd mos_w700_l150_m1_nf1_id1
  XMP18 y a vdd vdd mos_w700_l150_m1_nf1_id1
  XMP19 y a vdd vdd mos_w700_l150_m1_nf1_id1
  XMP20 y a vdd vdd mos_w700_l150_m1_nf1_id1
  XMP21 y a vdd vdd mos_w700_l150_m1_nf1_id1
  XMP22 y a vdd vdd mos_w700_l150_m1_nf1_id1
  XMP23 y a vdd vdd mos_w700_l150_m1_nf1_id1
  XMP24 y a vdd vdd mos_w700_l150_m1_nf1_id1
  XMP25 y a vdd vdd mos_w700_l150_m1_nf1_id1
  XMP26 y a vdd vdd mos_w700_l150_m1_nf1_id1
  XMP27 y a vdd vdd mos_w700_l150_m1_nf1_id1
  XMP28 y a vdd vdd mos_w700_l150_m1_nf1_id1
  XMP29 y a vdd vdd mos_w700_l150_m1_nf1_id1
  XMP30 y a vdd vdd mos_w700_l150_m1_nf1_id1
  XMP31 y a vdd vdd mos_w700_l150_m1_nf1_id1
  XMP32 y a vdd vdd mos_w700_l150_m1_nf1_id1
  XMP33 y a vdd vdd mos_w700_l150_m1_nf1_id1
  XMP34 y a vdd vdd mos_w700_l150_m1_nf1_id1
  XMP35 y a vdd vdd mos_w700_l150_m1_nf1_id1
  XMP36 y a vdd vdd mos_w700_l150_m1_nf1_id1
  XMP37 y a vdd vdd mos_w700_l150_m1_nf1_id1
  XMP38 y a vdd vdd mos_w700_l150_m1_nf1_id1
  XMP39 y a vdd vdd mos_w700_l150_m1_nf1_id1
  XMP40 y a vdd vdd mos_w700_l150_m1_nf1_id1
  XMP41 y a vdd vdd mos_w700_l150_m1_nf1_id1
  XMP42 y a vdd vdd mos_w700_l150_m1_nf1_id1
  XMP43 y a vdd vdd mos_w700_l150_m1_nf1_id1
  XMP44 y a vdd vdd mos_w700_l150_m1_nf1_id1
  XMP45 y a vdd vdd mos_w700_l150_m1_nf1_id1
  XMP46 y a vdd vdd mos_w700_l150_m1_nf1_id1
  XMP47 y a vdd vdd mos_w700_l150_m1_nf1_id1
  XMP48 y a vdd vdd mos_w700_l150_m1_nf1_id1
  XMP49 y a vdd vdd mos_w700_l150_m1_nf1_id1