*SPICE NETLIST
* OPEN SOURCE CONVERSION PRELUDE (SPICE)



.include ../lib/openram_dff/openram_dff.spice
.include ../lib/sram_sp_cell/sky130_fd_bd_sram__sram_sp_cell.lvs.spice
.include ../lib/sram_sp_cell_replica/sky130_fd_bd_sram__openram_sp_cell_opt1_replica.lvs.spice
.include ../lib/sramgen_sp_sense_amp/sramgen_sp_sense_amp.lvs.spice
.include ../lib/sramgen_control/sramgen_control_replica_v1.spice

.SUBCKT sky130_fd_pr__special_nfet_pass d g s b PARAMS: w=1.0 l=1.0 mult=1
M0 d g s b npass l='l' w='w' mult='mult'
.ENDS

.SUBCKT sky130_fd_pr__special_nfet_latch d g s b PARAMS: w=1.0 l=1.0 mult=1
M0 d g s b npd l='l' w='w' mult='mult'
.ENDS

.SUBCKT sky130_fd_pr__nfet_01v8 d g s b PARAMS: w=1.0 l=1.0 mult=1
M0 d g s b nshort l='l' w='w' mult='mult'
.ENDS

.SUBCKT sky130_fd_pr__pfet_01v8 d g s b PARAMS: w=1.0 l=1.0 mult=1
M0 d g s b pshort l='l' w='w' mult='mult'
.ENDS

.SUBCKT sky130_fd_pr__special_pfet_pass d g s b PARAMS: w=1.0 l=1.0 mult=1
M0 d g s b ppu l='l' w='w' mult='mult'
.ENDS

.SUBCKT sky130_fd_pr__pfet_01v8_hvt d g s b PARAMS: w=1.0 l=1.0 mult=1
M0 d g s b phighvt l='l' w='w' mult='mult'
.ENDS

.SUBCKT sky130_fd_pr__nfet_01v8_lvt d g s b PARAMS: w=1.0 l=1.0 mult=1
M0 d g s b nlowvt l='l' w='w' mult='mult'
.ENDS
* circuit.Package sramgen_sramgen_sram_4096x8m8w8_replica_v1
* Written by SpiceNetlister
* 

.SUBCKT hierarchical_decoder_nand_2 
+ gnd vdd a b y 

xn1 
+ x a gnd gnd 
+ sky130_fd_pr__nfet_01v8 
+ w='3.2' l='0.15' 

xn2 
+ y b x gnd 
+ sky130_fd_pr__nfet_01v8 
+ w='3.2' l='0.15' 

xp1 
+ y a vdd vdd 
+ sky130_fd_pr__pfet_01v8 
+ w='2.4' l='0.15' 

xp2 
+ y b vdd vdd 
+ sky130_fd_pr__pfet_01v8 
+ w='2.4' l='0.15' 

.ENDS

.SUBCKT hierarchical_decoder_inv_3 
+ gnd vdd din din_b 

xn 
+ din_b din gnd gnd 
+ sky130_fd_pr__nfet_01v8 
+ w='1.6' l='0.15' 

xp 
+ din_b din vdd vdd 
+ sky130_fd_pr__pfet_01v8 
+ w='2.4' l='0.15' 

.ENDS

.SUBCKT hierarchical_decoder_nand_92 
+ gnd vdd a b c y 

xn1 
+ x1 a gnd gnd 
+ sky130_fd_pr__nfet_01v8 
+ w='3.2' l='0.15' 

xn2 
+ x2 b x1 gnd 
+ sky130_fd_pr__nfet_01v8 
+ w='3.2' l='0.15' 

xn3 
+ y c x2 gnd 
+ sky130_fd_pr__nfet_01v8 
+ w='3.2' l='0.15' 

xp1 
+ y a vdd vdd 
+ sky130_fd_pr__pfet_01v8 
+ w='2.4' l='0.15' 

xp2 
+ y b vdd vdd 
+ sky130_fd_pr__pfet_01v8 
+ w='2.4' l='0.15' 

xp3 
+ y c vdd vdd 
+ sky130_fd_pr__pfet_01v8 
+ w='2.4' l='0.15' 

.ENDS

.SUBCKT hierarchical_decoder 
+ vdd gnd addr[8] addr[7] addr[6] addr[5] addr[4] addr[3] addr[2] addr[1] addr[0] addr_b[8] addr_b[7] addr_b[6] addr_b[5] addr_b[4] addr_b[3] addr_b[2] addr_b[1] addr_b[0] decode[511] decode[510] decode[509] decode[508] decode[507] decode[506] decode[505] decode[504] decode[503] decode[502] decode[501] decode[500] decode[499] decode[498] decode[497] decode[496] decode[495] decode[494] decode[493] decode[492] decode[491] decode[490] decode[489] decode[488] decode[487] decode[486] decode[485] decode[484] decode[483] decode[482] decode[481] decode[480] decode[479] decode[478] decode[477] decode[476] decode[475] decode[474] decode[473] decode[472] decode[471] decode[470] decode[469] decode[468] decode[467] decode[466] decode[465] decode[464] decode[463] decode[462] decode[461] decode[460] decode[459] decode[458] decode[457] decode[456] decode[455] decode[454] decode[453] decode[452] decode[451] decode[450] decode[449] decode[448] decode[447] decode[446] decode[445] decode[444] decode[443] decode[442] decode[441] decode[440] decode[439] decode[438] decode[437] decode[436] decode[435] decode[434] decode[433] decode[432] decode[431] decode[430] decode[429] decode[428] decode[427] decode[426] decode[425] decode[424] decode[423] decode[422] decode[421] decode[420] decode[419] decode[418] decode[417] decode[416] decode[415] decode[414] decode[413] decode[412] decode[411] decode[410] decode[409] decode[408] decode[407] decode[406] decode[405] decode[404] decode[403] decode[402] decode[401] decode[400] decode[399] decode[398] decode[397] decode[396] decode[395] decode[394] decode[393] decode[392] decode[391] decode[390] decode[389] decode[388] decode[387] decode[386] decode[385] decode[384] decode[383] decode[382] decode[381] decode[380] decode[379] decode[378] decode[377] decode[376] decode[375] decode[374] decode[373] decode[372] decode[371] decode[370] decode[369] decode[368] decode[367] decode[366] decode[365] decode[364] decode[363] decode[362] decode[361] decode[360] decode[359] decode[358] decode[357] decode[356] decode[355] decode[354] decode[353] decode[352] decode[351] decode[350] decode[349] decode[348] decode[347] decode[346] decode[345] decode[344] decode[343] decode[342] decode[341] decode[340] decode[339] decode[338] decode[337] decode[336] decode[335] decode[334] decode[333] decode[332] decode[331] decode[330] decode[329] decode[328] decode[327] decode[326] decode[325] decode[324] decode[323] decode[322] decode[321] decode[320] decode[319] decode[318] decode[317] decode[316] decode[315] decode[314] decode[313] decode[312] decode[311] decode[310] decode[309] decode[308] decode[307] decode[306] decode[305] decode[304] decode[303] decode[302] decode[301] decode[300] decode[299] decode[298] decode[297] decode[296] decode[295] decode[294] decode[293] decode[292] decode[291] decode[290] decode[289] decode[288] decode[287] decode[286] decode[285] decode[284] decode[283] decode[282] decode[281] decode[280] decode[279] decode[278] decode[277] decode[276] decode[275] decode[274] decode[273] decode[272] decode[271] decode[270] decode[269] decode[268] decode[267] decode[266] decode[265] decode[264] decode[263] decode[262] decode[261] decode[260] decode[259] decode[258] decode[257] decode[256] decode[255] decode[254] decode[253] decode[252] decode[251] decode[250] decode[249] decode[248] decode[247] decode[246] decode[245] decode[244] decode[243] decode[242] decode[241] decode[240] decode[239] decode[238] decode[237] decode[236] decode[235] decode[234] decode[233] decode[232] decode[231] decode[230] decode[229] decode[228] decode[227] decode[226] decode[225] decode[224] decode[223] decode[222] decode[221] decode[220] decode[219] decode[218] decode[217] decode[216] decode[215] decode[214] decode[213] decode[212] decode[211] decode[210] decode[209] decode[208] decode[207] decode[206] decode[205] decode[204] decode[203] decode[202] decode[201] decode[200] decode[199] decode[198] decode[197] decode[196] decode[195] decode[194] decode[193] decode[192] decode[191] decode[190] decode[189] decode[188] decode[187] decode[186] decode[185] decode[184] decode[183] decode[182] decode[181] decode[180] decode[179] decode[178] decode[177] decode[176] decode[175] decode[174] decode[173] decode[172] decode[171] decode[170] decode[169] decode[168] decode[167] decode[166] decode[165] decode[164] decode[163] decode[162] decode[161] decode[160] decode[159] decode[158] decode[157] decode[156] decode[155] decode[154] decode[153] decode[152] decode[151] decode[150] decode[149] decode[148] decode[147] decode[146] decode[145] decode[144] decode[143] decode[142] decode[141] decode[140] decode[139] decode[138] decode[137] decode[136] decode[135] decode[134] decode[133] decode[132] decode[131] decode[130] decode[129] decode[128] decode[127] decode[126] decode[125] decode[124] decode[123] decode[122] decode[121] decode[120] decode[119] decode[118] decode[117] decode[116] decode[115] decode[114] decode[113] decode[112] decode[111] decode[110] decode[109] decode[108] decode[107] decode[106] decode[105] decode[104] decode[103] decode[102] decode[101] decode[100] decode[99] decode[98] decode[97] decode[96] decode[95] decode[94] decode[93] decode[92] decode[91] decode[90] decode[89] decode[88] decode[87] decode[86] decode[85] decode[84] decode[83] decode[82] decode[81] decode[80] decode[79] decode[78] decode[77] decode[76] decode[75] decode[74] decode[73] decode[72] decode[71] decode[70] decode[69] decode[68] decode[67] decode[66] decode[65] decode[64] decode[63] decode[62] decode[61] decode[60] decode[59] decode[58] decode[57] decode[56] decode[55] decode[54] decode[53] decode[52] decode[51] decode[50] decode[49] decode[48] decode[47] decode[46] decode[45] decode[44] decode[43] decode[42] decode[41] decode[40] decode[39] decode[38] decode[37] decode[36] decode[35] decode[34] decode[33] decode[32] decode[31] decode[30] decode[29] decode[28] decode[27] decode[26] decode[25] decode[24] decode[23] decode[22] decode[21] decode[20] decode[19] decode[18] decode[17] decode[16] decode[15] decode[14] decode[13] decode[12] decode[11] decode[10] decode[9] decode[8] decode[7] decode[6] decode[5] decode[4] decode[3] decode[2] decode[1] decode[0] decode_b[511] decode_b[510] decode_b[509] decode_b[508] decode_b[507] decode_b[506] decode_b[505] decode_b[504] decode_b[503] decode_b[502] decode_b[501] decode_b[500] decode_b[499] decode_b[498] decode_b[497] decode_b[496] decode_b[495] decode_b[494] decode_b[493] decode_b[492] decode_b[491] decode_b[490] decode_b[489] decode_b[488] decode_b[487] decode_b[486] decode_b[485] decode_b[484] decode_b[483] decode_b[482] decode_b[481] decode_b[480] decode_b[479] decode_b[478] decode_b[477] decode_b[476] decode_b[475] decode_b[474] decode_b[473] decode_b[472] decode_b[471] decode_b[470] decode_b[469] decode_b[468] decode_b[467] decode_b[466] decode_b[465] decode_b[464] decode_b[463] decode_b[462] decode_b[461] decode_b[460] decode_b[459] decode_b[458] decode_b[457] decode_b[456] decode_b[455] decode_b[454] decode_b[453] decode_b[452] decode_b[451] decode_b[450] decode_b[449] decode_b[448] decode_b[447] decode_b[446] decode_b[445] decode_b[444] decode_b[443] decode_b[442] decode_b[441] decode_b[440] decode_b[439] decode_b[438] decode_b[437] decode_b[436] decode_b[435] decode_b[434] decode_b[433] decode_b[432] decode_b[431] decode_b[430] decode_b[429] decode_b[428] decode_b[427] decode_b[426] decode_b[425] decode_b[424] decode_b[423] decode_b[422] decode_b[421] decode_b[420] decode_b[419] decode_b[418] decode_b[417] decode_b[416] decode_b[415] decode_b[414] decode_b[413] decode_b[412] decode_b[411] decode_b[410] decode_b[409] decode_b[408] decode_b[407] decode_b[406] decode_b[405] decode_b[404] decode_b[403] decode_b[402] decode_b[401] decode_b[400] decode_b[399] decode_b[398] decode_b[397] decode_b[396] decode_b[395] decode_b[394] decode_b[393] decode_b[392] decode_b[391] decode_b[390] decode_b[389] decode_b[388] decode_b[387] decode_b[386] decode_b[385] decode_b[384] decode_b[383] decode_b[382] decode_b[381] decode_b[380] decode_b[379] decode_b[378] decode_b[377] decode_b[376] decode_b[375] decode_b[374] decode_b[373] decode_b[372] decode_b[371] decode_b[370] decode_b[369] decode_b[368] decode_b[367] decode_b[366] decode_b[365] decode_b[364] decode_b[363] decode_b[362] decode_b[361] decode_b[360] decode_b[359] decode_b[358] decode_b[357] decode_b[356] decode_b[355] decode_b[354] decode_b[353] decode_b[352] decode_b[351] decode_b[350] decode_b[349] decode_b[348] decode_b[347] decode_b[346] decode_b[345] decode_b[344] decode_b[343] decode_b[342] decode_b[341] decode_b[340] decode_b[339] decode_b[338] decode_b[337] decode_b[336] decode_b[335] decode_b[334] decode_b[333] decode_b[332] decode_b[331] decode_b[330] decode_b[329] decode_b[328] decode_b[327] decode_b[326] decode_b[325] decode_b[324] decode_b[323] decode_b[322] decode_b[321] decode_b[320] decode_b[319] decode_b[318] decode_b[317] decode_b[316] decode_b[315] decode_b[314] decode_b[313] decode_b[312] decode_b[311] decode_b[310] decode_b[309] decode_b[308] decode_b[307] decode_b[306] decode_b[305] decode_b[304] decode_b[303] decode_b[302] decode_b[301] decode_b[300] decode_b[299] decode_b[298] decode_b[297] decode_b[296] decode_b[295] decode_b[294] decode_b[293] decode_b[292] decode_b[291] decode_b[290] decode_b[289] decode_b[288] decode_b[287] decode_b[286] decode_b[285] decode_b[284] decode_b[283] decode_b[282] decode_b[281] decode_b[280] decode_b[279] decode_b[278] decode_b[277] decode_b[276] decode_b[275] decode_b[274] decode_b[273] decode_b[272] decode_b[271] decode_b[270] decode_b[269] decode_b[268] decode_b[267] decode_b[266] decode_b[265] decode_b[264] decode_b[263] decode_b[262] decode_b[261] decode_b[260] decode_b[259] decode_b[258] decode_b[257] decode_b[256] decode_b[255] decode_b[254] decode_b[253] decode_b[252] decode_b[251] decode_b[250] decode_b[249] decode_b[248] decode_b[247] decode_b[246] decode_b[245] decode_b[244] decode_b[243] decode_b[242] decode_b[241] decode_b[240] decode_b[239] decode_b[238] decode_b[237] decode_b[236] decode_b[235] decode_b[234] decode_b[233] decode_b[232] decode_b[231] decode_b[230] decode_b[229] decode_b[228] decode_b[227] decode_b[226] decode_b[225] decode_b[224] decode_b[223] decode_b[222] decode_b[221] decode_b[220] decode_b[219] decode_b[218] decode_b[217] decode_b[216] decode_b[215] decode_b[214] decode_b[213] decode_b[212] decode_b[211] decode_b[210] decode_b[209] decode_b[208] decode_b[207] decode_b[206] decode_b[205] decode_b[204] decode_b[203] decode_b[202] decode_b[201] decode_b[200] decode_b[199] decode_b[198] decode_b[197] decode_b[196] decode_b[195] decode_b[194] decode_b[193] decode_b[192] decode_b[191] decode_b[190] decode_b[189] decode_b[188] decode_b[187] decode_b[186] decode_b[185] decode_b[184] decode_b[183] decode_b[182] decode_b[181] decode_b[180] decode_b[179] decode_b[178] decode_b[177] decode_b[176] decode_b[175] decode_b[174] decode_b[173] decode_b[172] decode_b[171] decode_b[170] decode_b[169] decode_b[168] decode_b[167] decode_b[166] decode_b[165] decode_b[164] decode_b[163] decode_b[162] decode_b[161] decode_b[160] decode_b[159] decode_b[158] decode_b[157] decode_b[156] decode_b[155] decode_b[154] decode_b[153] decode_b[152] decode_b[151] decode_b[150] decode_b[149] decode_b[148] decode_b[147] decode_b[146] decode_b[145] decode_b[144] decode_b[143] decode_b[142] decode_b[141] decode_b[140] decode_b[139] decode_b[138] decode_b[137] decode_b[136] decode_b[135] decode_b[134] decode_b[133] decode_b[132] decode_b[131] decode_b[130] decode_b[129] decode_b[128] decode_b[127] decode_b[126] decode_b[125] decode_b[124] decode_b[123] decode_b[122] decode_b[121] decode_b[120] decode_b[119] decode_b[118] decode_b[117] decode_b[116] decode_b[115] decode_b[114] decode_b[113] decode_b[112] decode_b[111] decode_b[110] decode_b[109] decode_b[108] decode_b[107] decode_b[106] decode_b[105] decode_b[104] decode_b[103] decode_b[102] decode_b[101] decode_b[100] decode_b[99] decode_b[98] decode_b[97] decode_b[96] decode_b[95] decode_b[94] decode_b[93] decode_b[92] decode_b[91] decode_b[90] decode_b[89] decode_b[88] decode_b[87] decode_b[86] decode_b[85] decode_b[84] decode_b[83] decode_b[82] decode_b[81] decode_b[80] decode_b[79] decode_b[78] decode_b[77] decode_b[76] decode_b[75] decode_b[74] decode_b[73] decode_b[72] decode_b[71] decode_b[70] decode_b[69] decode_b[68] decode_b[67] decode_b[66] decode_b[65] decode_b[64] decode_b[63] decode_b[62] decode_b[61] decode_b[60] decode_b[59] decode_b[58] decode_b[57] decode_b[56] decode_b[55] decode_b[54] decode_b[53] decode_b[52] decode_b[51] decode_b[50] decode_b[49] decode_b[48] decode_b[47] decode_b[46] decode_b[45] decode_b[44] decode_b[43] decode_b[42] decode_b[41] decode_b[40] decode_b[39] decode_b[38] decode_b[37] decode_b[36] decode_b[35] decode_b[34] decode_b[33] decode_b[32] decode_b[31] decode_b[30] decode_b[29] decode_b[28] decode_b[27] decode_b[26] decode_b[25] decode_b[24] decode_b[23] decode_b[22] decode_b[21] decode_b[20] decode_b[19] decode_b[18] decode_b[17] decode_b[16] decode_b[15] decode_b[14] decode_b[13] decode_b[12] decode_b[11] decode_b[10] decode_b[9] decode_b[8] decode_b[7] decode_b[6] decode_b[5] decode_b[4] decode_b[3] decode_b[2] decode_b[1] decode_b[0] 

xnand_5 
+ gnd vdd addr_b[8] addr_b[7] net_4 
+ hierarchical_decoder_nand_2 
* No parameters

xinv_6 
+ gnd vdd net_4 predecode_1[0] 
+ hierarchical_decoder_inv_3 
* No parameters

xnand_8 
+ gnd vdd addr_b[8] addr[7] net_7 
+ hierarchical_decoder_nand_2 
* No parameters

xinv_9 
+ gnd vdd net_7 predecode_1[1] 
+ hierarchical_decoder_inv_3 
* No parameters

xnand_11 
+ gnd vdd addr[8] addr_b[7] net_10 
+ hierarchical_decoder_nand_2 
* No parameters

xinv_12 
+ gnd vdd net_10 predecode_1[2] 
+ hierarchical_decoder_inv_3 
* No parameters

xnand_14 
+ gnd vdd addr[8] addr[7] net_13 
+ hierarchical_decoder_nand_2 
* No parameters

xinv_15 
+ gnd vdd net_13 predecode_1[3] 
+ hierarchical_decoder_inv_3 
* No parameters

xnand_18 
+ gnd vdd addr_b[6] addr_b[5] net_17 
+ hierarchical_decoder_nand_2 
* No parameters

xinv_19 
+ gnd vdd net_17 predecode_16[0] 
+ hierarchical_decoder_inv_3 
* No parameters

xnand_21 
+ gnd vdd addr_b[6] addr[5] net_20 
+ hierarchical_decoder_nand_2 
* No parameters

xinv_22 
+ gnd vdd net_20 predecode_16[1] 
+ hierarchical_decoder_inv_3 
* No parameters

xnand_24 
+ gnd vdd addr[6] addr_b[5] net_23 
+ hierarchical_decoder_nand_2 
* No parameters

xinv_25 
+ gnd vdd net_23 predecode_16[2] 
+ hierarchical_decoder_inv_3 
* No parameters

xnand_27 
+ gnd vdd addr[6] addr[5] net_26 
+ hierarchical_decoder_nand_2 
* No parameters

xinv_28 
+ gnd vdd net_26 predecode_16[3] 
+ hierarchical_decoder_inv_3 
* No parameters

xnand_31 
+ gnd vdd predecode_1[0] predecode_16[0] net_30 
+ hierarchical_decoder_nand_2 
* No parameters

xinv_32 
+ gnd vdd net_30 predecode_29[0] 
+ hierarchical_decoder_inv_3 
* No parameters

xnand_34 
+ gnd vdd predecode_1[0] predecode_16[1] net_33 
+ hierarchical_decoder_nand_2 
* No parameters

xinv_35 
+ gnd vdd net_33 predecode_29[1] 
+ hierarchical_decoder_inv_3 
* No parameters

xnand_37 
+ gnd vdd predecode_1[0] predecode_16[2] net_36 
+ hierarchical_decoder_nand_2 
* No parameters

xinv_38 
+ gnd vdd net_36 predecode_29[2] 
+ hierarchical_decoder_inv_3 
* No parameters

xnand_40 
+ gnd vdd predecode_1[0] predecode_16[3] net_39 
+ hierarchical_decoder_nand_2 
* No parameters

xinv_41 
+ gnd vdd net_39 predecode_29[3] 
+ hierarchical_decoder_inv_3 
* No parameters

xnand_43 
+ gnd vdd predecode_1[1] predecode_16[0] net_42 
+ hierarchical_decoder_nand_2 
* No parameters

xinv_44 
+ gnd vdd net_42 predecode_29[4] 
+ hierarchical_decoder_inv_3 
* No parameters

xnand_46 
+ gnd vdd predecode_1[1] predecode_16[1] net_45 
+ hierarchical_decoder_nand_2 
* No parameters

xinv_47 
+ gnd vdd net_45 predecode_29[5] 
+ hierarchical_decoder_inv_3 
* No parameters

xnand_49 
+ gnd vdd predecode_1[1] predecode_16[2] net_48 
+ hierarchical_decoder_nand_2 
* No parameters

xinv_50 
+ gnd vdd net_48 predecode_29[6] 
+ hierarchical_decoder_inv_3 
* No parameters

xnand_52 
+ gnd vdd predecode_1[1] predecode_16[3] net_51 
+ hierarchical_decoder_nand_2 
* No parameters

xinv_53 
+ gnd vdd net_51 predecode_29[7] 
+ hierarchical_decoder_inv_3 
* No parameters

xnand_55 
+ gnd vdd predecode_1[2] predecode_16[0] net_54 
+ hierarchical_decoder_nand_2 
* No parameters

xinv_56 
+ gnd vdd net_54 predecode_29[8] 
+ hierarchical_decoder_inv_3 
* No parameters

xnand_58 
+ gnd vdd predecode_1[2] predecode_16[1] net_57 
+ hierarchical_decoder_nand_2 
* No parameters

xinv_59 
+ gnd vdd net_57 predecode_29[9] 
+ hierarchical_decoder_inv_3 
* No parameters

xnand_61 
+ gnd vdd predecode_1[2] predecode_16[2] net_60 
+ hierarchical_decoder_nand_2 
* No parameters

xinv_62 
+ gnd vdd net_60 predecode_29[10] 
+ hierarchical_decoder_inv_3 
* No parameters

xnand_64 
+ gnd vdd predecode_1[2] predecode_16[3] net_63 
+ hierarchical_decoder_nand_2 
* No parameters

xinv_65 
+ gnd vdd net_63 predecode_29[11] 
+ hierarchical_decoder_inv_3 
* No parameters

xnand_67 
+ gnd vdd predecode_1[3] predecode_16[0] net_66 
+ hierarchical_decoder_nand_2 
* No parameters

xinv_68 
+ gnd vdd net_66 predecode_29[12] 
+ hierarchical_decoder_inv_3 
* No parameters

xnand_70 
+ gnd vdd predecode_1[3] predecode_16[1] net_69 
+ hierarchical_decoder_nand_2 
* No parameters

xinv_71 
+ gnd vdd net_69 predecode_29[13] 
+ hierarchical_decoder_inv_3 
* No parameters

xnand_73 
+ gnd vdd predecode_1[3] predecode_16[2] net_72 
+ hierarchical_decoder_nand_2 
* No parameters

xinv_74 
+ gnd vdd net_72 predecode_29[14] 
+ hierarchical_decoder_inv_3 
* No parameters

xnand_76 
+ gnd vdd predecode_1[3] predecode_16[3] net_75 
+ hierarchical_decoder_nand_2 
* No parameters

xinv_77 
+ gnd vdd net_75 predecode_29[15] 
+ hierarchical_decoder_inv_3 
* No parameters

xnand_80 
+ gnd vdd addr_b[4] addr_b[3] net_79 
+ hierarchical_decoder_nand_2 
* No parameters

xinv_81 
+ gnd vdd net_79 predecode_78[0] 
+ hierarchical_decoder_inv_3 
* No parameters

xnand_83 
+ gnd vdd addr_b[4] addr[3] net_82 
+ hierarchical_decoder_nand_2 
* No parameters

xinv_84 
+ gnd vdd net_82 predecode_78[1] 
+ hierarchical_decoder_inv_3 
* No parameters

xnand_86 
+ gnd vdd addr[4] addr_b[3] net_85 
+ hierarchical_decoder_nand_2 
* No parameters

xinv_87 
+ gnd vdd net_85 predecode_78[2] 
+ hierarchical_decoder_inv_3 
* No parameters

xnand_89 
+ gnd vdd addr[4] addr[3] net_88 
+ hierarchical_decoder_nand_2 
* No parameters

xinv_90 
+ gnd vdd net_88 predecode_78[3] 
+ hierarchical_decoder_inv_3 
* No parameters

xnand_94 
+ gnd vdd addr_b[2] addr_b[1] addr_b[0] net_93 
+ hierarchical_decoder_nand_92 
* No parameters

xinv_95 
+ gnd vdd net_93 predecode_91[0] 
+ hierarchical_decoder_inv_3 
* No parameters

xnand_97 
+ gnd vdd addr_b[2] addr_b[1] addr[0] net_96 
+ hierarchical_decoder_nand_92 
* No parameters

xinv_98 
+ gnd vdd net_96 predecode_91[1] 
+ hierarchical_decoder_inv_3 
* No parameters

xnand_100 
+ gnd vdd addr_b[2] addr[1] addr_b[0] net_99 
+ hierarchical_decoder_nand_92 
* No parameters

xinv_101 
+ gnd vdd net_99 predecode_91[2] 
+ hierarchical_decoder_inv_3 
* No parameters

xnand_103 
+ gnd vdd addr_b[2] addr[1] addr[0] net_102 
+ hierarchical_decoder_nand_92 
* No parameters

xinv_104 
+ gnd vdd net_102 predecode_91[3] 
+ hierarchical_decoder_inv_3 
* No parameters

xnand_106 
+ gnd vdd addr[2] addr_b[1] addr_b[0] net_105 
+ hierarchical_decoder_nand_92 
* No parameters

xinv_107 
+ gnd vdd net_105 predecode_91[4] 
+ hierarchical_decoder_inv_3 
* No parameters

xnand_109 
+ gnd vdd addr[2] addr_b[1] addr[0] net_108 
+ hierarchical_decoder_nand_92 
* No parameters

xinv_110 
+ gnd vdd net_108 predecode_91[5] 
+ hierarchical_decoder_inv_3 
* No parameters

xnand_112 
+ gnd vdd addr[2] addr[1] addr_b[0] net_111 
+ hierarchical_decoder_nand_92 
* No parameters

xinv_113 
+ gnd vdd net_111 predecode_91[6] 
+ hierarchical_decoder_inv_3 
* No parameters

xnand_115 
+ gnd vdd addr[2] addr[1] addr[0] net_114 
+ hierarchical_decoder_nand_92 
* No parameters

xinv_116 
+ gnd vdd net_114 predecode_91[7] 
+ hierarchical_decoder_inv_3 
* No parameters

xnand_119 
+ gnd vdd predecode_78[0] predecode_91[0] net_118 
+ hierarchical_decoder_nand_2 
* No parameters

xinv_120 
+ gnd vdd net_118 predecode_117[0] 
+ hierarchical_decoder_inv_3 
* No parameters

xnand_122 
+ gnd vdd predecode_78[0] predecode_91[1] net_121 
+ hierarchical_decoder_nand_2 
* No parameters

xinv_123 
+ gnd vdd net_121 predecode_117[1] 
+ hierarchical_decoder_inv_3 
* No parameters

xnand_125 
+ gnd vdd predecode_78[0] predecode_91[2] net_124 
+ hierarchical_decoder_nand_2 
* No parameters

xinv_126 
+ gnd vdd net_124 predecode_117[2] 
+ hierarchical_decoder_inv_3 
* No parameters

xnand_128 
+ gnd vdd predecode_78[0] predecode_91[3] net_127 
+ hierarchical_decoder_nand_2 
* No parameters

xinv_129 
+ gnd vdd net_127 predecode_117[3] 
+ hierarchical_decoder_inv_3 
* No parameters

xnand_131 
+ gnd vdd predecode_78[0] predecode_91[4] net_130 
+ hierarchical_decoder_nand_2 
* No parameters

xinv_132 
+ gnd vdd net_130 predecode_117[4] 
+ hierarchical_decoder_inv_3 
* No parameters

xnand_134 
+ gnd vdd predecode_78[0] predecode_91[5] net_133 
+ hierarchical_decoder_nand_2 
* No parameters

xinv_135 
+ gnd vdd net_133 predecode_117[5] 
+ hierarchical_decoder_inv_3 
* No parameters

xnand_137 
+ gnd vdd predecode_78[0] predecode_91[6] net_136 
+ hierarchical_decoder_nand_2 
* No parameters

xinv_138 
+ gnd vdd net_136 predecode_117[6] 
+ hierarchical_decoder_inv_3 
* No parameters

xnand_140 
+ gnd vdd predecode_78[0] predecode_91[7] net_139 
+ hierarchical_decoder_nand_2 
* No parameters

xinv_141 
+ gnd vdd net_139 predecode_117[7] 
+ hierarchical_decoder_inv_3 
* No parameters

xnand_143 
+ gnd vdd predecode_78[1] predecode_91[0] net_142 
+ hierarchical_decoder_nand_2 
* No parameters

xinv_144 
+ gnd vdd net_142 predecode_117[8] 
+ hierarchical_decoder_inv_3 
* No parameters

xnand_146 
+ gnd vdd predecode_78[1] predecode_91[1] net_145 
+ hierarchical_decoder_nand_2 
* No parameters

xinv_147 
+ gnd vdd net_145 predecode_117[9] 
+ hierarchical_decoder_inv_3 
* No parameters

xnand_149 
+ gnd vdd predecode_78[1] predecode_91[2] net_148 
+ hierarchical_decoder_nand_2 
* No parameters

xinv_150 
+ gnd vdd net_148 predecode_117[10] 
+ hierarchical_decoder_inv_3 
* No parameters

xnand_152 
+ gnd vdd predecode_78[1] predecode_91[3] net_151 
+ hierarchical_decoder_nand_2 
* No parameters

xinv_153 
+ gnd vdd net_151 predecode_117[11] 
+ hierarchical_decoder_inv_3 
* No parameters

xnand_155 
+ gnd vdd predecode_78[1] predecode_91[4] net_154 
+ hierarchical_decoder_nand_2 
* No parameters

xinv_156 
+ gnd vdd net_154 predecode_117[12] 
+ hierarchical_decoder_inv_3 
* No parameters

xnand_158 
+ gnd vdd predecode_78[1] predecode_91[5] net_157 
+ hierarchical_decoder_nand_2 
* No parameters

xinv_159 
+ gnd vdd net_157 predecode_117[13] 
+ hierarchical_decoder_inv_3 
* No parameters

xnand_161 
+ gnd vdd predecode_78[1] predecode_91[6] net_160 
+ hierarchical_decoder_nand_2 
* No parameters

xinv_162 
+ gnd vdd net_160 predecode_117[14] 
+ hierarchical_decoder_inv_3 
* No parameters

xnand_164 
+ gnd vdd predecode_78[1] predecode_91[7] net_163 
+ hierarchical_decoder_nand_2 
* No parameters

xinv_165 
+ gnd vdd net_163 predecode_117[15] 
+ hierarchical_decoder_inv_3 
* No parameters

xnand_167 
+ gnd vdd predecode_78[2] predecode_91[0] net_166 
+ hierarchical_decoder_nand_2 
* No parameters

xinv_168 
+ gnd vdd net_166 predecode_117[16] 
+ hierarchical_decoder_inv_3 
* No parameters

xnand_170 
+ gnd vdd predecode_78[2] predecode_91[1] net_169 
+ hierarchical_decoder_nand_2 
* No parameters

xinv_171 
+ gnd vdd net_169 predecode_117[17] 
+ hierarchical_decoder_inv_3 
* No parameters

xnand_173 
+ gnd vdd predecode_78[2] predecode_91[2] net_172 
+ hierarchical_decoder_nand_2 
* No parameters

xinv_174 
+ gnd vdd net_172 predecode_117[18] 
+ hierarchical_decoder_inv_3 
* No parameters

xnand_176 
+ gnd vdd predecode_78[2] predecode_91[3] net_175 
+ hierarchical_decoder_nand_2 
* No parameters

xinv_177 
+ gnd vdd net_175 predecode_117[19] 
+ hierarchical_decoder_inv_3 
* No parameters

xnand_179 
+ gnd vdd predecode_78[2] predecode_91[4] net_178 
+ hierarchical_decoder_nand_2 
* No parameters

xinv_180 
+ gnd vdd net_178 predecode_117[20] 
+ hierarchical_decoder_inv_3 
* No parameters

xnand_182 
+ gnd vdd predecode_78[2] predecode_91[5] net_181 
+ hierarchical_decoder_nand_2 
* No parameters

xinv_183 
+ gnd vdd net_181 predecode_117[21] 
+ hierarchical_decoder_inv_3 
* No parameters

xnand_185 
+ gnd vdd predecode_78[2] predecode_91[6] net_184 
+ hierarchical_decoder_nand_2 
* No parameters

xinv_186 
+ gnd vdd net_184 predecode_117[22] 
+ hierarchical_decoder_inv_3 
* No parameters

xnand_188 
+ gnd vdd predecode_78[2] predecode_91[7] net_187 
+ hierarchical_decoder_nand_2 
* No parameters

xinv_189 
+ gnd vdd net_187 predecode_117[23] 
+ hierarchical_decoder_inv_3 
* No parameters

xnand_191 
+ gnd vdd predecode_78[3] predecode_91[0] net_190 
+ hierarchical_decoder_nand_2 
* No parameters

xinv_192 
+ gnd vdd net_190 predecode_117[24] 
+ hierarchical_decoder_inv_3 
* No parameters

xnand_194 
+ gnd vdd predecode_78[3] predecode_91[1] net_193 
+ hierarchical_decoder_nand_2 
* No parameters

xinv_195 
+ gnd vdd net_193 predecode_117[25] 
+ hierarchical_decoder_inv_3 
* No parameters

xnand_197 
+ gnd vdd predecode_78[3] predecode_91[2] net_196 
+ hierarchical_decoder_nand_2 
* No parameters

xinv_198 
+ gnd vdd net_196 predecode_117[26] 
+ hierarchical_decoder_inv_3 
* No parameters

xnand_200 
+ gnd vdd predecode_78[3] predecode_91[3] net_199 
+ hierarchical_decoder_nand_2 
* No parameters

xinv_201 
+ gnd vdd net_199 predecode_117[27] 
+ hierarchical_decoder_inv_3 
* No parameters

xnand_203 
+ gnd vdd predecode_78[3] predecode_91[4] net_202 
+ hierarchical_decoder_nand_2 
* No parameters

xinv_204 
+ gnd vdd net_202 predecode_117[28] 
+ hierarchical_decoder_inv_3 
* No parameters

xnand_206 
+ gnd vdd predecode_78[3] predecode_91[5] net_205 
+ hierarchical_decoder_nand_2 
* No parameters

xinv_207 
+ gnd vdd net_205 predecode_117[29] 
+ hierarchical_decoder_inv_3 
* No parameters

xnand_209 
+ gnd vdd predecode_78[3] predecode_91[6] net_208 
+ hierarchical_decoder_nand_2 
* No parameters

xinv_210 
+ gnd vdd net_208 predecode_117[30] 
+ hierarchical_decoder_inv_3 
* No parameters

xnand_212 
+ gnd vdd predecode_78[3] predecode_91[7] net_211 
+ hierarchical_decoder_nand_2 
* No parameters

xinv_213 
+ gnd vdd net_211 predecode_117[31] 
+ hierarchical_decoder_inv_3 
* No parameters

xnand_214 
+ gnd vdd predecode_29[0] predecode_117[0] decode_b[0] 
+ hierarchical_decoder_nand_2 
* No parameters

xinv_215 
+ gnd vdd decode_b[0] decode[0] 
+ hierarchical_decoder_inv_3 
* No parameters

xnand_216 
+ gnd vdd predecode_29[0] predecode_117[1] decode_b[1] 
+ hierarchical_decoder_nand_2 
* No parameters

xinv_217 
+ gnd vdd decode_b[1] decode[1] 
+ hierarchical_decoder_inv_3 
* No parameters

xnand_218 
+ gnd vdd predecode_29[0] predecode_117[2] decode_b[2] 
+ hierarchical_decoder_nand_2 
* No parameters

xinv_219 
+ gnd vdd decode_b[2] decode[2] 
+ hierarchical_decoder_inv_3 
* No parameters

xnand_220 
+ gnd vdd predecode_29[0] predecode_117[3] decode_b[3] 
+ hierarchical_decoder_nand_2 
* No parameters

xinv_221 
+ gnd vdd decode_b[3] decode[3] 
+ hierarchical_decoder_inv_3 
* No parameters

xnand_222 
+ gnd vdd predecode_29[0] predecode_117[4] decode_b[4] 