* Substrate SPICE library
* This is a generated file. Be careful when editing manually: this file may be overwritten.


.SUBCKT sram_sp_hstrap BR VDD VSS BL VNB VPB

  X0 BL VNB BL VNB sky130_fd_pr__special_nfet_pass l=0.140 nf=1 w=0.140

  X1 BL VNB BL VNB sky130_fd_pr__special_nfet_pass l=0.140 nf=1 w=0.140


.ENDS sram_sp_hstrap

.SUBCKT mos_w1800_l150_m1_nf1_id1 d g s b

  X0 d g s b sky130_fd_pr__pfet_01v8 l=0.150 nf=1 w=1.800


.ENDS mos_w1800_l150_m1_nf1_id1

.SUBCKT sky130_fd_sc_hs__nor2_4 A B VGND VNB VPB VPWR Y

  X0 a_27_368# A VPWR VPB sky130_fd_pr__pfet_01v8 l=0.150 nf=1 w=1.120

  X1 a_27_368# B Y VPB sky130_fd_pr__pfet_01v8 l=0.150 nf=1 w=1.120

  X2 VGND B Y VNB sky130_fd_pr__nfet_01v8_lvt l=0.150 nf=1 w=0.740

  X3 a_27_368# A VPWR VPB sky130_fd_pr__pfet_01v8 l=0.150 nf=1 w=1.120

  X4 Y B a_27_368# VPB sky130_fd_pr__pfet_01v8 l=0.150 nf=1 w=1.120

  X5 a_27_368# B Y VPB sky130_fd_pr__pfet_01v8 l=0.150 nf=1 w=1.120

  X6 VGND A Y VNB sky130_fd_pr__nfet_01v8_lvt l=0.150 nf=1 w=0.740

  X7 VPWR A a_27_368# VPB sky130_fd_pr__pfet_01v8 l=0.150 nf=1 w=1.120

  X8 VPWR A a_27_368# VPB sky130_fd_pr__pfet_01v8 l=0.150 nf=1 w=1.120

  X9 Y A VGND VNB sky130_fd_pr__nfet_01v8_lvt l=0.150 nf=1 w=0.740

  X10 Y B VGND VNB sky130_fd_pr__nfet_01v8_lvt l=0.150 nf=1 w=0.740

  X11 Y B a_27_368# VPB sky130_fd_pr__pfet_01v8 l=0.150 nf=1 w=1.120


.ENDS sky130_fd_sc_hs__nor2_4

.SUBCKT mos_w2000_l150_m1_nf1_id0 d g s b

  X0 d g s b sky130_fd_pr__nfet_01v8 l=0.150 nf=1 w=2.000


.ENDS mos_w2000_l150_m1_nf1_id0

.SUBCKT mos_w2500_l150_m1_nf1_id1 d g s b

  X0 d g s b sky130_fd_pr__pfet_01v8 l=0.150 nf=1 w=2.500


.ENDS mos_w2500_l150_m1_nf1_id1

.SUBCKT nand2 vdd vss a b y

  Xn1 x a vss vss mos_w2000_l150_m1_nf1_id0
  Xn2 y b x vss mos_w2000_l150_m1_nf1_id0
  Xp1 y a vdd vdd mos_w2500_l150_m1_nf1_id1
  Xp2 y b vdd vdd mos_w2500_l150_m1_nf1_id1

.ENDS nand2

.SUBCKT mos_w5000_l150_m1_nf1_id1 d g s b

  X0 d g s b sky130_fd_pr__pfet_01v8 l=0.150 nf=1 w=5.000


.ENDS mos_w5000_l150_m1_nf1_id1

.SUBCKT folded_inv_1 vdd vss a y

  XMP0 y a vdd vdd mos_w5000_l150_m1_nf1_id1
  XMN0 y a vss vss mos_w2000_l150_m1_nf1_id0
  XMP1 y a vdd vdd mos_w5000_l150_m1_nf1_id1
  XMN1 y a vss vss mos_w2000_l150_m1_nf1_id0

.ENDS folded_inv_1

.SUBCKT and2 vdd a b y yb vss

  X0 vdd vss a b yb nand2
  X0_1 vdd vss yb y folded_inv_1

.ENDS and2

.SUBCKT decoder_stage vdd vss y[0] y[1] y[2] y[3] y[4] y[5] y[6] y[7] y[8] y[9] y_b[0] y_b[1] y_b[2] y_b[3] y_b[4] y_b[5] y_b[6] y_b[7] y_b[8] y_b[9] wl_en in[0] in[1] in[2] in[3] in[4] in[5] in[6] in[7] in[8] in[9]

  Xgate_0_0_0 vdd wl_en in[0] y[0] y_b[0] vss and2
  Xgate_0_1_0 vdd wl_en in[1] y[1] y_b[1] vss and2
  Xgate_0_2_0 vdd wl_en in[2] y[2] y_b[2] vss and2
  Xgate_0_3_0 vdd wl_en in[3] y[3] y_b[3] vss and2
  Xgate_0_4_0 vdd wl_en in[4] y[4] y_b[4] vss and2
  Xgate_0_5_0 vdd wl_en in[5] y[5] y_b[5] vss and2
  Xgate_0_6_0 vdd wl_en in[6] y[6] y_b[6] vss and2
  Xgate_0_7_0 vdd wl_en in[7] y[7] y_b[7] vss and2
  Xgate_0_8_0 vdd wl_en in[8] y[8] y_b[8] vss and2
  Xgate_0_9_0 vdd wl_en in[9] y[9] y_b[9] vss and2

.ENDS decoder_stage

.SUBCKT mos_w800_l150_m1_nf1_id0 d g s b

  X0 d g s b sky130_fd_pr__nfet_01v8 l=0.150 nf=1 w=0.800


.ENDS mos_w800_l150_m1_nf1_id0

.SUBCKT mos_w3000_l150_m1_nf1_id0 d g s b

  X0 d g s b sky130_fd_pr__nfet_01v8 l=0.150 nf=1 w=3.000


.ENDS mos_w3000_l150_m1_nf1_id0

.SUBCKT nand3 vdd vss a b c y

  Xn1 x1 a vss vss mos_w3000_l150_m1_nf1_id0
  Xn2 x2 b x1 vss mos_w3000_l150_m1_nf1_id0
  Xn3 y c x2 vss mos_w3000_l150_m1_nf1_id0
  Xp1 y a vdd vdd mos_w2500_l150_m1_nf1_id1
  Xp2 y b vdd vdd mos_w2500_l150_m1_nf1_id1
  Xp3 y c vdd vdd mos_w2500_l150_m1_nf1_id1

.ENDS nand3

.SUBCKT mos_w2750_l150_m1_nf1_id1 d g s b

  X0 d g s b sky130_fd_pr__pfet_01v8 l=0.150 nf=1 w=2.750


.ENDS mos_w2750_l150_m1_nf1_id1

.SUBCKT mos_w1100_l150_m1_nf1_id0 d g s b

  X0 d g s b sky130_fd_pr__nfet_01v8 l=0.150 nf=1 w=1.100


.ENDS mos_w1100_l150_m1_nf1_id0

.SUBCKT folded_inv_4 vdd vss a y

  XMP0 y a vdd vdd mos_w2750_l150_m1_nf1_id1
  XMN0 y a vss vss mos_w1100_l150_m1_nf1_id0
  XMP1 y a vdd vdd mos_w2750_l150_m1_nf1_id1
  XMN1 y a vss vss mos_w1100_l150_m1_nf1_id0

.ENDS folded_inv_4

.SUBCKT decoder_stage_8 vdd vss y[0] y[1] y[2] y[3] y[4] y[5] y[6] y[7] y_b[0] y_b[1] y_b[2] y_b[3] y_b[4] y_b[5] y_b[6] y_b[7] predecode_0_0 predecode_0_1 predecode_1_0 predecode_1_1 predecode_2_0 predecode_2_1

  Xgate_0_0_0 vdd vss predecode_0_0 predecode_1_0 predecode_2_0 y_b[0] nand3
  Xgate_0_1_0 vdd vss predecode_0_1 predecode_1_0 predecode_2_0 y_b[1] nand3
  Xgate_0_2_0 vdd vss predecode_0_0 predecode_1_1 predecode_2_0 y_b[2] nand3
  Xgate_0_3_0 vdd vss predecode_0_1 predecode_1_1 predecode_2_0 y_b[3] nand3
  Xgate_0_4_0 vdd vss predecode_0_0 predecode_1_0 predecode_2_1 y_b[4] nand3
  Xgate_0_5_0 vdd vss predecode_0_1 predecode_1_0 predecode_2_1 y_b[5] nand3
  Xgate_0_6_0 vdd vss predecode_0_0 predecode_1_1 predecode_2_1 y_b[6] nand3
  Xgate_0_7_0 vdd vss predecode_0_1 predecode_1_1 predecode_2_1 y_b[7] nand3
  Xgate_1_0_0 vdd vss y_b[0] y[0] folded_inv_4
  Xgate_1_1_0 vdd vss y_b[1] y[1] folded_inv_4
  Xgate_1_2_0 vdd vss y_b[2] y[2] folded_inv_4
  Xgate_1_3_0 vdd vss y_b[3] y[3] folded_inv_4
  Xgate_1_4_0 vdd vss y_b[4] y[4] folded_inv_4
  Xgate_1_5_0 vdd vss y_b[5] y[5] folded_inv_4
  Xgate_1_6_0 vdd vss y_b[6] y[6] folded_inv_4
  Xgate_1_7_0 vdd vss y_b[7] y[7] folded_inv_4

.ENDS decoder_stage_8

.SUBCKT decoder_2 vdd vss y[0] y[1] y[2] y[3] y[4] y[5] y[6] y[7] y_b[0] y_b[1] y_b[2] y_b[3] y_b[4] y_b[5] y_b[6] y_b[7] predecode_0_0 predecode_0_1 predecode_1_0 predecode_1_1 predecode_2_0 predecode_2_1

  X0 vdd vss y[0] y[1] y[2] y[3] y[4] y[5] y[6] y[7] y_b[0] y_b[1] y_b[2] y_b[3] y_b[4] y_b[5] y_b[6] y_b[7] predecode_0_0 predecode_0_1 predecode_1_0 predecode_1_1 predecode_2_0 predecode_2_1 decoder_stage_8

.ENDS decoder_2

.SUBCKT nand2_1 vdd vss a b y

  Xn1 x a vss vss mos_w2000_l150_m1_nf1_id0
  Xn2 y b x vss mos_w2000_l150_m1_nf1_id0
  Xp1 y a vdd vdd mos_w2500_l150_m1_nf1_id1
  Xp2 y b vdd vdd mos_w2500_l150_m1_nf1_id1

.ENDS nand2_1

.SUBCKT mos_w3900_l150_m1_nf1_id1 d g s b

  X0 d g s b sky130_fd_pr__pfet_01v8 l=0.150 nf=1 w=3.900


.ENDS mos_w3900_l150_m1_nf1_id1

.SUBCKT mos_w1550_l150_m1_nf1_id0 d g s b

  X0 d g s b sky130_fd_pr__nfet_01v8 l=0.150 nf=1 w=1.550


.ENDS mos_w1550_l150_m1_nf1_id0

.SUBCKT folded_inv_5 vdd vss a y

  XMP0 y a vdd vdd mos_w3900_l150_m1_nf1_id1
  XMN0 y a vss vss mos_w1550_l150_m1_nf1_id0
  XMP1 y a vdd vdd mos_w3900_l150_m1_nf1_id1
  XMN1 y a vss vss mos_w1550_l150_m1_nf1_id0

.ENDS folded_inv_5

.SUBCKT decoder_stage_9 vdd vss y[0] y[1] y[2] y[3] y_b[0] y_b[1] y_b[2] y_b[3] predecode_0_0 predecode_0_1 predecode_1_0 predecode_1_1

  Xgate_0_0_0 vdd vss predecode_0_0 predecode_1_0 y_b[0] nand2_1
  Xgate_0_1_0 vdd vss predecode_0_1 predecode_1_0 y_b[1] nand2_1
  Xgate_0_2_0 vdd vss predecode_0_0 predecode_1_1 y_b[2] nand2_1
  Xgate_0_3_0 vdd vss predecode_0_1 predecode_1_1 y_b[3] nand2_1
  Xgate_1_0_0 vdd vss y_b[0] y[0] folded_inv_5
  Xgate_1_1_0 vdd vss y_b[1] y[1] folded_inv_5
  Xgate_1_2_0 vdd vss y_b[2] y[2] folded_inv_5
  Xgate_1_3_0 vdd vss y_b[3] y[3] folded_inv_5

.ENDS decoder_stage_9

.SUBCKT decoder_3 vdd vss y[0] y[1] y[2] y[3] y_b[0] y_b[1] y_b[2] y_b[3] predecode_0_0 predecode_0_1 predecode_1_0 predecode_1_1

  X0 vdd vss y[0] y[1] y[2] y[3] y_b[0] y_b[1] y_b[2] y_b[3] predecode_0_0 predecode_0_1 predecode_1_0 predecode_1_1 decoder_stage_9

.ENDS decoder_3

.SUBCKT mos_w2100_l150_m1_nf1_id0 d g s b

  X0 d g s b sky130_fd_pr__nfet_01v8 l=0.150 nf=1 w=2.100


.ENDS mos_w2100_l150_m1_nf1_id0

.SUBCKT mos_w2650_l150_m1_nf1_id1 d g s b

  X0 d g s b sky130_fd_pr__pfet_01v8 l=0.150 nf=1 w=2.650


.ENDS mos_w2650_l150_m1_nf1_id1

.SUBCKT nand2_2 vdd vss a b y

  Xn1 x a vss vss mos_w2100_l150_m1_nf1_id0
  Xn2 y b x vss mos_w2100_l150_m1_nf1_id0
  Xp1 y a vdd vdd mos_w2650_l150_m1_nf1_id1
  Xp2 y b vdd vdd mos_w2650_l150_m1_nf1_id1

.ENDS nand2_2

.SUBCKT mos_w2900_l150_m1_nf1_id1 d g s b

  X0 d g s b sky130_fd_pr__pfet_01v8 l=0.150 nf=1 w=2.900


.ENDS mos_w2900_l150_m1_nf1_id1

.SUBCKT mos_w1150_l150_m1_nf1_id0 d g s b

  X0 d g s b sky130_fd_pr__nfet_01v8 l=0.150 nf=1 w=1.150


.ENDS mos_w1150_l150_m1_nf1_id0

.SUBCKT folded_inv_6 vdd vss a y

  XMP0 y a vdd vdd mos_w2900_l150_m1_nf1_id1
  XMN0 y a vss vss mos_w1150_l150_m1_nf1_id0
  XMP1 y a vdd vdd mos_w2900_l150_m1_nf1_id1
  XMN1 y a vss vss mos_w1150_l150_m1_nf1_id0

.ENDS folded_inv_6

.SUBCKT and2_1 vdd a b y yb vss

  X0 vdd vss a b yb nand2_2
  X0_1 vdd vss yb y folded_inv_6

.ENDS and2_1

.SUBCKT mos_w700_l150_m1_nf1_id1 d g s b

  X0 d g s b sky130_fd_pr__pfet_01v8 l=0.150 nf=1 w=0.700


.ENDS mos_w700_l150_m1_nf1_id1

.SUBCKT mos_w700_l150_m1_nf1_id0 d g s b

  X0 d g s b sky130_fd_pr__nfet_01v8 l=0.150 nf=1 w=0.700


.ENDS mos_w700_l150_m1_nf1_id0

.SUBCKT multi_finger_inv_8 vdd vss a y

  XMP0 y a vdd vdd mos_w700_l150_m1_nf1_id1
  XMP1 y a vdd vdd mos_w700_l150_m1_nf1_id1
  XMP2 y a vdd vdd mos_w700_l150_m1_nf1_id1
  XMP3 y a vdd vdd mos_w700_l150_m1_nf1_id1
  XMP4 y a vdd vdd mos_w700_l150_m1_nf1_id1
  XMP5 y a vdd vdd mos_w700_l150_m1_nf1_id1
  XMP6 y a vdd vdd mos_w700_l150_m1_nf1_id1
  XMP7 y a vdd vdd mos_w700_l150_m1_nf1_id1
  XMP8 y a vdd vdd mos_w700_l150_m1_nf1_id1
  XMP9 y a vdd vdd mos_w700_l150_m1_nf1_id1
  XMP10 y a vdd vdd mos_w700_l150_m1_nf1_id1
  XMP11 y a vdd vdd mos_w700_l150_m1_nf1_id1
  XMP12 y a vdd vdd mos_w700_l150_m1_nf1_id1
  XMP13 y a vdd vdd mos_w700_l150_m1_nf1_id1
  XMP14 y a vdd vdd mos_w700_l150_m1_nf1_id1
  XMP15 y a vdd vdd mos_w700_l150_m1_nf1_id1
  XMP16 y a vdd vdd mos_w700_l150_m1_nf1_id1
  XMP17 y a vdd vdd mos_w700_l150_m1_nf1_id1
  XMP18 y a vdd vdd mos_w700_l150_m1_nf1_id1
  XMN0 y a vss vss mos_w700_l150_m1_nf1_id0
  XMN1 y a vss vss mos_w700_l150_m1_nf1_id0
  XMN2 y a vss vss mos_w700_l150_m1_nf1_id0
  XMN3 y a vss vss mos_w700_l150_m1_nf1_id0
  XMN4 y a vss vss mos_w700_l150_m1_nf1_id0
  XMN5 y a vss vss mos_w700_l150_m1_nf1_id0
  XMN6 y a vss vss mos_w700_l150_m1_nf1_id0
  XMN7 y a vss vss mos_w700_l150_m1_nf1_id0

.ENDS multi_finger_inv_8

.SUBCKT multi_finger_inv_9 vdd vss a y

  XMP0 y a vdd vdd mos_w700_l150_m1_nf1_id1
  XMP1 y a vdd vdd mos_w700_l150_m1_nf1_id1
  XMP2 y a vdd vdd mos_w700_l150_m1_nf1_id1
  XMP3 y a vdd vdd mos_w700_l150_m1_nf1_id1
  XMP4 y a vdd vdd mos_w700_l150_m1_nf1_id1
  XMP5 y a vdd vdd mos_w700_l150_m1_nf1_id1
  XMP6 y a vdd vdd mos_w700_l150_m1_nf1_id1
  XMP7 y a vdd vdd mos_w700_l150_m1_nf1_id1
  XMP8 y a vdd vdd mos_w700_l150_m1_nf1_id1
  XMP9 y a vdd vdd mos_w700_l150_m1_nf1_id1
  XMP10 y a vdd vdd mos_w700_l150_m1_nf1_id1
  XMP11 y a vdd vdd mos_w700_l150_m1_nf1_id1
  XMP12 y a vdd vdd mos_w700_l150_m1_nf1_id1
  XMP13 y a vdd vdd mos_w700_l150_m1_nf1_id1
  XMP14 y a vdd vdd mos_w700_l150_m1_nf1_id1
  XMP15 y a vdd vdd mos_w700_l150_m1_nf1_id1
  XMP16 y a vdd vdd mos_w700_l150_m1_nf1_id1
  XMP17 y a vdd vdd mos_w700_l150_m1_nf1_id1
  XMP18 y a vdd vdd mos_w700_l150_m1_nf1_id1
  XMP19 y a vdd vdd mos_w700_l150_m1_nf1_id1
  XMP20 y a vdd vdd mos_w700_l150_m1_nf1_id1
  XMP21 y a vdd vdd mos_w700_l150_m1_nf1_id1
  XMP22 y a vdd vdd mos_w700_l150_m1_nf1_id1
  XMP23 y a vdd vdd mos_w700_l150_m1_nf1_id1
  XMP24 y a vdd vdd mos_w700_l150_m1_nf1_id1
  XMP25 y a vdd vdd mos_w700_l150_m1_nf1_id1
  XMP26 y a vdd vdd mos_w700_l150_m1_nf1_id1
  XMP27 y a vdd vdd mos_w700_l150_m1_nf1_id1
  XMP28 y a vdd vdd mos_w700_l150_m1_nf1_id1
  XMP29 y a vdd vdd mos_w700_l150_m1_nf1_id1
  XMP30 y a vdd vdd mos_w700_l150_m1_nf1_id1
  XMP31 y a vdd vdd mos_w700_l150_m1_nf1_id1
  XMP32 y a vdd vdd mos_w700_l150_m1_nf1_id1
  XMP33 y a vdd vdd mos_w700_l150_m1_nf1_id1
  XMP34 y a vdd vdd mos_w700_l150_m1_nf1_id1
  XMP35 y a vdd vdd mos_w700_l150_m1_nf1_id1
  XMP36 y a vdd vdd mos_w700_l150_m1_nf1_id1
  XMP37 y a vdd vdd mos_w700_l150_m1_nf1_id1
  XMP38 y a vdd vdd mos_w700_l150_m1_nf1_id1
  XMP39 y a vdd vdd mos_w700_l150_m1_nf1_id1
  XMP40 y a vdd vdd mos_w700_l150_m1_nf1_id1
  XMP41 y a vdd vdd mos_w700_l150_m1_nf1_id1
  XMP42 y a vdd vdd mos_w700_l150_m1_nf1_id1
  XMP43 y a vdd vdd mos_w700_l150_m1_nf1_id1
  XMN0 y a vss vss mos_w700_l150_m1_nf1_id0
  XMN1 y a vss vss mos_w700_l150_m1_nf1_id0
  XMN2 y a vss vss mos_w700_l150_m1_nf1_id0
  XMN3 y a vss vss mos_w700_l150_m1_nf1_id0
  XMN4 y a vss vss mos_w700_l150_m1_nf1_id0
  XMN5 y a vss vss mos_w700_l150_m1_nf1_id0
  XMN6 y a vss vss mos_w700_l150_m1_nf1_id0
  XMN7 y a vss vss mos_w700_l150_m1_nf1_id0
  XMN8 y a vss vss mos_w700_l150_m1_nf1_id0
  XMN9 y a vss vss mos_w700_l150_m1_nf1_id0
  XMN10 y a vss vss mos_w700_l150_m1_nf1_id0
  XMN11 y a vss vss mos_w700_l150_m1_nf1_id0
  XMN12 y a vss vss mos_w700_l150_m1_nf1_id0
  XMN13 y a vss vss mos_w700_l150_m1_nf1_id0
  XMN14 y a vss vss mos_w700_l150_m1_nf1_id0
  XMN15 y a vss vss mos_w700_l150_m1_nf1_id0
  XMN16 y a vss vss mos_w700_l150_m1_nf1_id0

.ENDS multi_finger_inv_9

.SUBCKT decoder_stage_5 vdd vss y[0] y[1] y[2] y[3] y[4] y[5] y[6] y[7] y[8] y[9] y[10] y[11] y[12] y[13] y[14] y[15] y[16] y[17] y[18] y[19] y[20] y[21] y[22] y[23] y[24] y[25] y[26] y[27] y[28] y[29] y[30] y[31] y_b[0] y_b[1] y_b[2] y_b[3] y_b[4] y_b[5] y_b[6] y_b[7] y_b[8] y_b[9] y_b[10] y_b[11] y_b[12] y_b[13] y_b[14] y_b[15] y_b[16] y_b[17] y_b[18] y_b[19] y_b[20] y_b[21] y_b[22] y_b[23] y_b[24] y_b[25] y_b[26] y_b[27] y_b[28] y_b[29] y_b[30] y_b[31] predecode_0_0 predecode_0_1 predecode_0_2 predecode_0_3 predecode_0_4 predecode_0_5 predecode_0_6 predecode_0_7 predecode_1_0 predecode_1_1 predecode_1_2 predecode_1_3

  Xgate_0_0_0 vdd predecode_0_0 predecode_1_0 x_0[0] y_b_noconn_0_0_0 vss and2_1
  Xgate_0_1_0 vdd predecode_0_1 predecode_1_0 x_0[1] y_b_noconn_0_1_0 vss and2_1
  Xgate_0_2_0 vdd predecode_0_2 predecode_1_0 x_0[2] y_b_noconn_0_2_0 vss and2_1
  Xgate_0_3_0 vdd predecode_0_3 predecode_1_0 x_0[3] y_b_noconn_0_3_0 vss and2_1
  Xgate_0_4_0 vdd predecode_0_4 predecode_1_0 x_0[4] y_b_noconn_0_4_0 vss and2_1
  Xgate_0_5_0 vdd predecode_0_5 predecode_1_0 x_0[5] y_b_noconn_0_5_0 vss and2_1
  Xgate_0_6_0 vdd predecode_0_6 predecode_1_0 x_0[6] y_b_noconn_0_6_0 vss and2_1
  Xgate_0_7_0 vdd predecode_0_7 predecode_1_0 x_0[7] y_b_noconn_0_7_0 vss and2_1
  Xgate_0_8_0 vdd predecode_0_0 predecode_1_1 x_0[8] y_b_noconn_0_8_0 vss and2_1
  Xgate_0_9_0 vdd predecode_0_1 predecode_1_1 x_0[9] y_b_noconn_0_9_0 vss and2_1
  Xgate_0_10_0 vdd predecode_0_2 predecode_1_1 x_0[10] y_b_noconn_0_10_0 vss and2_1
  Xgate_0_11_0 vdd predecode_0_3 predecode_1_1 x_0[11] y_b_noconn_0_11_0 vss and2_1
  Xgate_0_12_0 vdd predecode_0_4 predecode_1_1 x_0[12] y_b_noconn_0_12_0 vss and2_1
  Xgate_0_13_0 vdd predecode_0_5 predecode_1_1 x_0[13] y_b_noconn_0_13_0 vss and2_1
  Xgate_0_14_0 vdd predecode_0_6 predecode_1_1 x_0[14] y_b_noconn_0_14_0 vss and2_1
  Xgate_0_15_0 vdd predecode_0_7 predecode_1_1 x_0[15] y_b_noconn_0_15_0 vss and2_1
  Xgate_0_16_0 vdd predecode_0_0 predecode_1_2 x_0[16] y_b_noconn_0_16_0 vss and2_1
  Xgate_0_17_0 vdd predecode_0_1 predecode_1_2 x_0[17] y_b_noconn_0_17_0 vss and2_1
  Xgate_0_18_0 vdd predecode_0_2 predecode_1_2 x_0[18] y_b_noconn_0_18_0 vss and2_1
  Xgate_0_19_0 vdd predecode_0_3 predecode_1_2 x_0[19] y_b_noconn_0_19_0 vss and2_1
  Xgate_0_20_0 vdd predecode_0_4 predecode_1_2 x_0[20] y_b_noconn_0_20_0 vss and2_1
  Xgate_0_21_0 vdd predecode_0_5 predecode_1_2 x_0[21] y_b_noconn_0_21_0 vss and2_1
  Xgate_0_22_0 vdd predecode_0_6 predecode_1_2 x_0[22] y_b_noconn_0_22_0 vss and2_1
  Xgate_0_23_0 vdd predecode_0_7 predecode_1_2 x_0[23] y_b_noconn_0_23_0 vss and2_1
  Xgate_0_24_0 vdd predecode_0_0 predecode_1_3 x_0[24] y_b_noconn_0_24_0 vss and2_1
  Xgate_0_25_0 vdd predecode_0_1 predecode_1_3 x_0[25] y_b_noconn_0_25_0 vss and2_1
  Xgate_0_26_0 vdd predecode_0_2 predecode_1_3 x_0[26] y_b_noconn_0_26_0 vss and2_1
  Xgate_0_27_0 vdd predecode_0_3 predecode_1_3 x_0[27] y_b_noconn_0_27_0 vss and2_1
  Xgate_0_28_0 vdd predecode_0_4 predecode_1_3 x_0[28] y_b_noconn_0_28_0 vss and2_1
  Xgate_0_29_0 vdd predecode_0_5 predecode_1_3 x_0[29] y_b_noconn_0_29_0 vss and2_1
  Xgate_0_30_0 vdd predecode_0_6 predecode_1_3 x_0[30] y_b_noconn_0_30_0 vss and2_1
  Xgate_0_31_0 vdd predecode_0_7 predecode_1_3 x_0[31] y_b_noconn_0_31_0 vss and2_1
  Xgate_1_0_0 vdd vss x_0[0] y_b[0] multi_finger_inv_8
  Xgate_1_1_0 vdd vss x_0[1] y_b[1] multi_finger_inv_8
  Xgate_1_2_0 vdd vss x_0[2] y_b[2] multi_finger_inv_8
  Xgate_1_3_0 vdd vss x_0[3] y_b[3] multi_finger_inv_8
  Xgate_1_4_0 vdd vss x_0[4] y_b[4] multi_finger_inv_8
  Xgate_1_5_0 vdd vss x_0[5] y_b[5] multi_finger_inv_8
  Xgate_1_6_0 vdd vss x_0[6] y_b[6] multi_finger_inv_8
  Xgate_1_7_0 vdd vss x_0[7] y_b[7] multi_finger_inv_8
  Xgate_1_8_0 vdd vss x_0[8] y_b[8] multi_finger_inv_8
  Xgate_1_9_0 vdd vss x_0[9] y_b[9] multi_finger_inv_8
  Xgate_1_10_0 vdd vss x_0[10] y_b[10] multi_finger_inv_8
  Xgate_1_11_0 vdd vss x_0[11] y_b[11] multi_finger_inv_8
  Xgate_1_12_0 vdd vss x_0[12] y_b[12] multi_finger_inv_8
  Xgate_1_13_0 vdd vss x_0[13] y_b[13] multi_finger_inv_8
  Xgate_1_14_0 vdd vss x_0[14] y_b[14] multi_finger_inv_8
  Xgate_1_15_0 vdd vss x_0[15] y_b[15] multi_finger_inv_8
  Xgate_1_16_0 vdd vss x_0[16] y_b[16] multi_finger_inv_8
  Xgate_1_17_0 vdd vss x_0[17] y_b[17] multi_finger_inv_8
  Xgate_1_18_0 vdd vss x_0[18] y_b[18] multi_finger_inv_8
  Xgate_1_19_0 vdd vss x_0[19] y_b[19] multi_finger_inv_8
  Xgate_1_20_0 vdd vss x_0[20] y_b[20] multi_finger_inv_8
  Xgate_1_21_0 vdd vss x_0[21] y_b[21] multi_finger_inv_8
  Xgate_1_22_0 vdd vss x_0[22] y_b[22] multi_finger_inv_8
  Xgate_1_23_0 vdd vss x_0[23] y_b[23] multi_finger_inv_8
  Xgate_1_24_0 vdd vss x_0[24] y_b[24] multi_finger_inv_8
  Xgate_1_25_0 vdd vss x_0[25] y_b[25] multi_finger_inv_8
  Xgate_1_26_0 vdd vss x_0[26] y_b[26] multi_finger_inv_8
  Xgate_1_27_0 vdd vss x_0[27] y_b[27] multi_finger_inv_8
  Xgate_1_28_0 vdd vss x_0[28] y_b[28] multi_finger_inv_8
  Xgate_1_29_0 vdd vss x_0[29] y_b[29] multi_finger_inv_8
  Xgate_1_30_0 vdd vss x_0[30] y_b[30] multi_finger_inv_8
  Xgate_1_31_0 vdd vss x_0[31] y_b[31] multi_finger_inv_8
  Xgate_2_0_0 vdd vss y_b[0] y[0] multi_finger_inv_9
  Xgate_2_1_0 vdd vss y_b[1] y[1] multi_finger_inv_9
  Xgate_2_2_0 vdd vss y_b[2] y[2] multi_finger_inv_9
  Xgate_2_3_0 vdd vss y_b[3] y[3] multi_finger_inv_9
  Xgate_2_4_0 vdd vss y_b[4] y[4] multi_finger_inv_9
  Xgate_2_5_0 vdd vss y_b[5] y[5] multi_finger_inv_9
  Xgate_2_6_0 vdd vss y_b[6] y[6] multi_finger_inv_9
  Xgate_2_7_0 vdd vss y_b[7] y[7] multi_finger_inv_9
  Xgate_2_8_0 vdd vss y_b[8] y[8] multi_finger_inv_9
  Xgate_2_9_0 vdd vss y_b[9] y[9] multi_finger_inv_9
  Xgate_2_10_0 vdd vss y_b[10] y[10] multi_finger_inv_9
  Xgate_2_11_0 vdd vss y_b[11] y[11] multi_finger_inv_9
  Xgate_2_12_0 vdd vss y_b[12] y[12] multi_finger_inv_9
  Xgate_2_13_0 vdd vss y_b[13] y[13] multi_finger_inv_9
  Xgate_2_14_0 vdd vss y_b[14] y[14] multi_finger_inv_9
  Xgate_2_15_0 vdd vss y_b[15] y[15] multi_finger_inv_9
  Xgate_2_16_0 vdd vss y_b[16] y[16] multi_finger_inv_9
  Xgate_2_17_0 vdd vss y_b[17] y[17] multi_finger_inv_9
  Xgate_2_18_0 vdd vss y_b[18] y[18] multi_finger_inv_9
  Xgate_2_19_0 vdd vss y_b[19] y[19] multi_finger_inv_9
  Xgate_2_20_0 vdd vss y_b[20] y[20] multi_finger_inv_9
  Xgate_2_21_0 vdd vss y_b[21] y[21] multi_finger_inv_9
  Xgate_2_22_0 vdd vss y_b[22] y[22] multi_finger_inv_9
  Xgate_2_23_0 vdd vss y_b[23] y[23] multi_finger_inv_9
  Xgate_2_24_0 vdd vss y_b[24] y[24] multi_finger_inv_9
  Xgate_2_25_0 vdd vss y_b[25] y[25] multi_finger_inv_9
  Xgate_2_26_0 vdd vss y_b[26] y[26] multi_finger_inv_9
  Xgate_2_27_0 vdd vss y_b[27] y[27] multi_finger_inv_9
  Xgate_2_28_0 vdd vss y_b[28] y[28] multi_finger_inv_9
  Xgate_2_29_0 vdd vss y_b[29] y[29] multi_finger_inv_9
  Xgate_2_30_0 vdd vss y_b[30] y[30] multi_finger_inv_9
  Xgate_2_31_0 vdd vss y_b[31] y[31] multi_finger_inv_9

.ENDS decoder_stage_5

.SUBCKT decoder vdd vss y[0] y[1] y[2] y[3] y[4] y[5] y[6] y[7] y[8] y[9] y[10] y[11] y[12] y[13] y[14] y[15] y[16] y[17] y[18] y[19] y[20] y[21] y[22] y[23] y[24] y[25] y[26] y[27] y[28] y[29] y[30] y[31] y_b[0] y_b[1] y_b[2] y_b[3] y_b[4] y_b[5] y_b[6] y_b[7] y_b[8] y_b[9] y_b[10] y_b[11] y_b[12] y_b[13] y_b[14] y_b[15] y_b[16] y_b[17] y_b[18] y_b[19] y_b[20] y_b[21] y_b[22] y_b[23] y_b[24] y_b[25] y_b[26] y_b[27] y_b[28] y_b[29] y_b[30] y_b[31] predecode_0_0 predecode_0_1 predecode_1_0 predecode_1_1 predecode_2_0 predecode_2_1 predecode_3_0 predecode_3_1 predecode_4_0 predecode_4_1

  X0 vdd vss child_conn_0[0] child_conn_0[1] child_conn_0[2] child_conn_0[3] child_conn_0[4] child_conn_0[5] child_conn_0[6] child_conn_0[7] child_noconn_0[0] child_noconn_0[1] child_noconn_0[2] child_noconn_0[3] child_noconn_0[4] child_noconn_0[5] child_noconn_0[6] child_noconn_0[7] predecode_0_0 predecode_0_1 predecode_1_0 predecode_1_1 predecode_2_0 predecode_2_1 decoder_2
  X0_1 vdd vss child_conn_1[0] child_conn_1[1] child_conn_1[2] child_conn_1[3] child_noconn_1[0] child_noconn_1[1] child_noconn_1[2] child_noconn_1[3] predecode_3_0 predecode_3_1 predecode_4_0 predecode_4_1 decoder_3
  X0_2 vdd vss y[0] y[1] y[2] y[3] y[4] y[5] y[6] y[7] y[8] y[9] y[10] y[11] y[12] y[13] y[14] y[15] y[16] y[17] y[18] y[19] y[20] y[21] y[22] y[23] y[24] y[25] y[26] y[27] y[28] y[29] y[30] y[31] y_b[0] y_b[1] y_b[2] y_b[3] y_b[4] y_b[5] y_b[6] y_b[7] y_b[8] y_b[9] y_b[10] y_b[11] y_b[12] y_b[13] y_b[14] y_b[15] y_b[16] y_b[17] y_b[18] y_b[19] y_b[20] y_b[21] y_b[22] y_b[23] y_b[24] y_b[25] y_b[26] y_b[27] y_b[28] y_b[29] y_b[30] y_b[31] child_conn_0[0] child_conn_0[1] child_conn_0[2] child_conn_0[3] child_conn_0[4] child_conn_0[5] child_conn_0[6] child_conn_0[7] child_conn_1[0] child_conn_1[1] child_conn_1[2] child_conn_1[3] decoder_stage_5

.ENDS decoder

.SUBCKT multi_finger_inv_10 vdd vss a y

  XMP0 y a vdd vdd mos_w700_l150_m1_nf1_id1
  XMP1 y a vdd vdd mos_w700_l150_m1_nf1_id1
  XMP2 y a vdd vdd mos_w700_l150_m1_nf1_id1
  XMP3 y a vdd vdd mos_w700_l150_m1_nf1_id1
  XMP4 y a vdd vdd mos_w700_l150_m1_nf1_id1
  XMP5 y a vdd vdd mos_w700_l150_m1_nf1_id1
  XMP6 y a vdd vdd mos_w700_l150_m1_nf1_id1
  XMP7 y a vdd vdd mos_w700_l150_m1_nf1_id1
  XMN0 y a vss vss mos_w700_l150_m1_nf1_id0
  XMN1 y a vss vss mos_w700_l150_m1_nf1_id0
  XMN2 y a vss vss mos_w700_l150_m1_nf1_id0

.ENDS multi_finger_inv_10

.SUBCKT multi_finger_inv_11 vdd vss a y

  XMP0 y a vdd vdd mos_w700_l150_m1_nf1_id1
  XMP1 y a vdd vdd mos_w700_l150_m1_nf1_id1
  XMP2 y a vdd vdd mos_w700_l150_m1_nf1_id1
  XMP3 y a vdd vdd mos_w700_l150_m1_nf1_id1
  XMP4 y a vdd vdd mos_w700_l150_m1_nf1_id1
  XMP5 y a vdd vdd mos_w700_l150_m1_nf1_id1
  XMP6 y a vdd vdd mos_w700_l150_m1_nf1_id1
  XMP7 y a vdd vdd mos_w700_l150_m1_nf1_id1
  XMN0 y a vss vss mos_w700_l150_m1_nf1_id0
  XMN1 y a vss vss mos_w700_l150_m1_nf1_id0
  XMN2 y a vss vss mos_w700_l150_m1_nf1_id0

.ENDS multi_finger_inv_11

.SUBCKT multi_finger_inv_12 vdd vss a y

  XMP0 y a vdd vdd mos_w700_l150_m1_nf1_id1
  XMP1 y a vdd vdd mos_w700_l150_m1_nf1_id1
  XMP2 y a vdd vdd mos_w700_l150_m1_nf1_id1
  XMP3 y a vdd vdd mos_w700_l150_m1_nf1_id1
  XMP4 y a vdd vdd mos_w700_l150_m1_nf1_id1
  XMP5 y a vdd vdd mos_w700_l150_m1_nf1_id1
  XMP6 y a vdd vdd mos_w700_l150_m1_nf1_id1
  XMP7 y a vdd vdd mos_w700_l150_m1_nf1_id1
  XMP8 y a vdd vdd mos_w700_l150_m1_nf1_id1
  XMP9 y a vdd vdd mos_w700_l150_m1_nf1_id1
  XMP10 y a vdd vdd mos_w700_l150_m1_nf1_id1
  XMP11 y a vdd vdd mos_w700_l150_m1_nf1_id1
  XMN0 y a vss vss mos_w700_l150_m1_nf1_id0
  XMN1 y a vss vss mos_w700_l150_m1_nf1_id0
  XMN2 y a vss vss mos_w700_l150_m1_nf1_id0
  XMN3 y a vss vss mos_w700_l150_m1_nf1_id0
  XMN4 y a vss vss mos_w700_l150_m1_nf1_id0

.ENDS multi_finger_inv_12

.SUBCKT decoder_stage_6 vdd vss y[0] y[1] y[2] y[3] y_b[0] y_b[1] y_b[2] y_b[3] predecode_0_0 predecode_0_1 predecode_1_0 predecode_1_1

  Xgate_0_0_0 vdd vss predecode_0_0 predecode_1_0 x_0[0] nand2_1
  Xgate_0_1_0 vdd vss predecode_0_1 predecode_1_0 x_0[1] nand2_1
  Xgate_0_2_0 vdd vss predecode_0_0 predecode_1_1 x_0[2] nand2_1
  Xgate_0_3_0 vdd vss predecode_0_1 predecode_1_1 x_0[3] nand2_1
  Xgate_1_0_0 vdd vss x_0[0] x_1[0] multi_finger_inv_10
  Xgate_1_1_0 vdd vss x_0[1] x_1[1] multi_finger_inv_10
  Xgate_1_2_0 vdd vss x_0[2] x_1[2] multi_finger_inv_10
  Xgate_1_3_0 vdd vss x_0[3] x_1[3] multi_finger_inv_10
  Xgate_2_0_0 vdd vss x_1[0] y_b[0] multi_finger_inv_11
  Xgate_2_0_1 vdd vss x_1[0] y_b[0] multi_finger_inv_11
  Xgate_2_1_0 vdd vss x_1[1] y_b[1] multi_finger_inv_11
  Xgate_2_1_1 vdd vss x_1[1] y_b[1] multi_finger_inv_11
  Xgate_2_2_0 vdd vss x_1[2] y_b[2] multi_finger_inv_11
  Xgate_2_2_1 vdd vss x_1[2] y_b[2] multi_finger_inv_11
  Xgate_2_3_0 vdd vss x_1[3] y_b[3] multi_finger_inv_11
  Xgate_2_3_1 vdd vss x_1[3] y_b[3] multi_finger_inv_11
  Xgate_3_0_0 vdd vss y_b[0] y[0] multi_finger_inv_12
  Xgate_3_0_1 vdd vss y_b[0] y[0] multi_finger_inv_12
  Xgate_3_0_2 vdd vss y_b[0] y[0] multi_finger_inv_12
  Xgate_3_1_0 vdd vss y_b[1] y[1] multi_finger_inv_12
  Xgate_3_1_1 vdd vss y_b[1] y[1] multi_finger_inv_12
  Xgate_3_1_2 vdd vss y_b[1] y[1] multi_finger_inv_12
  Xgate_3_2_0 vdd vss y_b[2] y[2] multi_finger_inv_12
  Xgate_3_2_1 vdd vss y_b[2] y[2] multi_finger_inv_12
  Xgate_3_2_2 vdd vss y_b[2] y[2] multi_finger_inv_12
  Xgate_3_3_0 vdd vss y_b[3] y[3] multi_finger_inv_12
  Xgate_3_3_1 vdd vss y_b[3] y[3] multi_finger_inv_12
  Xgate_3_3_2 vdd vss y_b[3] y[3] multi_finger_inv_12

.ENDS decoder_stage_6

.SUBCKT decoder_1 vdd vss y[0] y[1] y[2] y[3] y_b[0] y_b[1] y_b[2] y_b[3] predecode_0_0 predecode_0_1 predecode_1_0 predecode_1_1

  X0 vdd vss y[0] y[1] y[2] y[3] y_b[0] y_b[1] y_b[2] y_b[3] predecode_0_0 predecode_0_1 predecode_1_0 predecode_1_1 decoder_stage_6

.ENDS decoder_1

.SUBCKT sky130_fd_sc_hs__inv_16 A VGND VNB VPB VPWR Y

  X0 VPWR A Y VPB sky130_fd_pr__pfet_01v8 l=0.150 nf=1 w=1.120

  X1 Y A VGND VNB sky130_fd_pr__nfet_01v8_lvt l=0.150 nf=1 w=0.740

  X2 Y A VPWR VPB sky130_fd_pr__pfet_01v8 l=0.150 nf=1 w=1.120

  X3 Y A VPWR VPB sky130_fd_pr__pfet_01v8 l=0.150 nf=1 w=1.120

  X4 VPWR A Y VPB sky130_fd_pr__pfet_01v8 l=0.150 nf=1 w=1.120

  X5 VGND A Y VNB sky130_fd_pr__nfet_01v8_lvt l=0.150 nf=1 w=0.740

  X6 Y A VPWR VPB sky130_fd_pr__pfet_01v8 l=0.150 nf=1 w=1.120

  X7 VGND A Y VNB sky130_fd_pr__nfet_01v8_lvt l=0.150 nf=1 w=0.740

  X8 VPWR A Y VPB sky130_fd_pr__pfet_01v8 l=0.150 nf=1 w=1.120

  X9 VGND A Y VNB sky130_fd_pr__nfet_01v8_lvt l=0.150 nf=1 w=0.740

  X10 Y A VPWR VPB sky130_fd_pr__pfet_01v8 l=0.150 nf=1 w=1.120

  X11 VGND A Y VNB sky130_fd_pr__nfet_01v8_lvt l=0.150 nf=1 w=0.740

  X12 VPWR A Y VPB sky130_fd_pr__pfet_01v8 l=0.150 nf=1 w=1.120

  X13 VGND A Y VNB sky130_fd_pr__nfet_01v8_lvt l=0.150 nf=1 w=0.740

  X14 Y A VGND VNB sky130_fd_pr__nfet_01v8_lvt l=0.150 nf=1 w=0.740

  X15 Y A VGND VNB sky130_fd_pr__nfet_01v8_lvt l=0.150 nf=1 w=0.740

  X16 VGND A Y VNB sky130_fd_pr__nfet_01v8_lvt l=0.150 nf=1 w=0.740

  X17 VPWR A Y VPB sky130_fd_pr__pfet_01v8 l=0.150 nf=1 w=1.120

  X18 VGND A Y VNB sky130_fd_pr__nfet_01v8_lvt l=0.150 nf=1 w=0.740

  X19 Y A VGND VNB sky130_fd_pr__nfet_01v8_lvt l=0.150 nf=1 w=0.740

  X20 Y A VGND VNB sky130_fd_pr__nfet_01v8_lvt l=0.150 nf=1 w=0.740

  X21 VPWR A Y VPB sky130_fd_pr__pfet_01v8 l=0.150 nf=1 w=1.120

  X22 Y A VGND VNB sky130_fd_pr__nfet_01v8_lvt l=0.150 nf=1 w=0.740

  X23 Y A VPWR VPB sky130_fd_pr__pfet_01v8 l=0.150 nf=1 w=1.120

  X24 Y A VPWR VPB sky130_fd_pr__pfet_01v8 l=0.150 nf=1 w=1.120

  X25 VGND A Y VNB sky130_fd_pr__nfet_01v8_lvt l=0.150 nf=1 w=0.740

  X26 Y A VGND VNB sky130_fd_pr__nfet_01v8_lvt l=0.150 nf=1 w=0.740

  X27 Y A VGND VNB sky130_fd_pr__nfet_01v8_lvt l=0.150 nf=1 w=0.740

  X28 VPWR A Y VPB sky130_fd_pr__pfet_01v8 l=0.150 nf=1 w=1.120

  X29 VPWR A Y VPB sky130_fd_pr__pfet_01v8 l=0.150 nf=1 w=1.120

  X30 Y A VPWR VPB sky130_fd_pr__pfet_01v8 l=0.150 nf=1 w=1.120

  X31 Y A VPWR VPB sky130_fd_pr__pfet_01v8 l=0.150 nf=1 w=1.120


.ENDS sky130_fd_sc_hs__inv_16

.SUBCKT sky130_fd_sc_hs__inv_16_wrapper A VGND VNB VPB VPWR Y

  X0 A VGND VNB VPB VPWR Y sky130_fd_sc_hs__inv_16

.ENDS sky130_fd_sc_hs__inv_16_wrapper

.SUBCKT sky130_fd_sc_hs__inv_2 A VGND VNB VPB VPWR Y

  X0 Y A VPWR VPB sky130_fd_pr__pfet_01v8 l=0.150 nf=1 w=1.120

  X1 VPWR A Y VPB sky130_fd_pr__pfet_01v8 l=0.150 nf=1 w=1.120

  X2 VGND A Y VNB sky130_fd_pr__nfet_01v8_lvt l=0.150 nf=1 w=0.740

  X3 Y A VGND VNB sky130_fd_pr__nfet_01v8_lvt l=0.150 nf=1 w=0.740


.ENDS sky130_fd_sc_hs__inv_2

.SUBCKT sky130_fd_sc_hs__inv_2_wrapper A VGND VNB VPB VPWR Y

  X0 A VGND VNB VPB VPWR Y sky130_fd_sc_hs__inv_2

.ENDS sky130_fd_sc_hs__inv_2_wrapper

.SUBCKT sky130_fd_sc_hs__inv_4 A VGND VNB VPB VPWR Y

  X0 VGND A Y VNB sky130_fd_pr__nfet_01v8_lvt l=0.150 nf=1 w=0.740

  X1 VPWR A Y VPB sky130_fd_pr__pfet_01v8 l=0.150 nf=1 w=1.120

  X2 VPWR A Y VPB sky130_fd_pr__pfet_01v8 l=0.150 nf=1 w=1.120

  X3 VGND A Y VNB sky130_fd_pr__nfet_01v8_lvt l=0.150 nf=1 w=0.740

  X4 Y A VGND VNB sky130_fd_pr__nfet_01v8_lvt l=0.150 nf=1 w=0.740

  X5 Y A VPWR VPB sky130_fd_pr__pfet_01v8 l=0.150 nf=1 w=1.120

  X6 Y A VPWR VPB sky130_fd_pr__pfet_01v8 l=0.150 nf=1 w=1.120

  X7 Y A VGND VNB sky130_fd_pr__nfet_01v8_lvt l=0.150 nf=1 w=0.740


.ENDS sky130_fd_sc_hs__inv_4

.SUBCKT sky130_fd_sc_hs__inv_4_wrapper A VGND VNB VPB VPWR Y

  X0 A VGND VNB VPB VPWR Y sky130_fd_sc_hs__inv_4

.ENDS sky130_fd_sc_hs__inv_4_wrapper

.SUBCKT inv_chain_12 din dout vdd vss

  Xinv0 din vss vss vdd vdd x[0] sky130_fd_sc_hs__inv_2_wrapper
  Xinv1 x[0] vss vss vdd vdd x[1] sky130_fd_sc_hs__inv_2_wrapper
  Xinv2 x[1] vss vss vdd vdd x[2] sky130_fd_sc_hs__inv_2_wrapper
  Xinv3 x[2] vss vss vdd vdd x[3] sky130_fd_sc_hs__inv_2_wrapper
  Xinv4 x[3] vss vss vdd vdd x[4] sky130_fd_sc_hs__inv_2_wrapper
  Xinv5 x[4] vss vss vdd vdd x[5] sky130_fd_sc_hs__inv_2_wrapper
  Xinv6 x[5] vss vss vdd vdd x[6] sky130_fd_sc_hs__inv_2_wrapper
  Xinv7 x[6] vss vss vdd vdd x[7] sky130_fd_sc_hs__inv_2_wrapper
  Xinv8 x[7] vss vss vdd vdd x[8] sky130_fd_sc_hs__inv_2_wrapper
  Xinv9 x[8] vss vss vdd vdd x[9] sky130_fd_sc_hs__inv_2_wrapper